REMARK  Name = FQSA-mmff94.pdb
REMARK  16 active torsions:
REMARK  status: ('A' for Active; 'I' for Inactive)
REMARK    1  A    between atoms: _1  and  _2
REMARK    2  A    between atoms: _2  and  _3
REMARK    3  A    between atoms: _2  and  _5
REMARK    4  A    between atoms: _5  and  _6
REMARK    5  A    between atoms: _21  and  _22
REMARK    6  A    between atoms: _22  and  _23
REMARK    7  A    between atoms: _22  and  _25
REMARK    8  A    between atoms: _25  and  _26
REMARK    9  A    between atoms: _26  and  _27
REMARK   10  A    between atoms: _38  and  _39
REMARK   11  A    between atoms: _39  and  _40
REMARK   12  A    between atoms: _39  and  _42
REMARK   13  A    between atoms: _42  and  _43
REMARK   14  A    between atoms: _49  and  _50
REMARK   15  A    between atoms: _50  and  _51
REMARK   16  A    between atoms: _50  and  _53
REMARK                            x       y       z     vdW  Elec       q    Type
REMARK                         _______ _______ _______ _____ _____    ______ ____
ROOT
ATOM      1  CA  GLN A   2       5.506   0.627  -1.277  0.00  0.00    +0.159 C 
ENDROOT
BRANCH   1   3
ATOM      2  C   PHE A   1       3.417  -0.629  -0.822  0.00  0.00    +0.231 C 
ATOM      3  N   GLN A   2       4.049   0.530  -1.198  0.00  0.00    -0.303 N 
ATOM      4  H   GLN A   2       3.515   1.342  -1.497  0.00  0.00    +0.149 HD
ATOM      5  O   PHE A   1       4.037  -1.641  -0.497  0.00  0.00    -0.274 OA
BRANCH   2   6
ATOM      6  CA  PHE A   1       1.874  -0.572  -0.839  0.00  0.00    +0.142 C 
BRANCH   6   7
ATOM      7  N   PHE A   1       1.352  -1.949  -0.998  0.00  0.00    -0.320 NA
ATOM      8  H1  PHE A   1       1.744  -2.344  -1.853  0.00  0.00    +0.119 HD
ATOM      9  H2  PHE A   1       1.763  -2.519  -0.254  0.00  0.00    +0.119 HD
ENDBRANCH   6   7
BRANCH   6  10
ATOM     10  CB  PHE A   1       1.391   0.101   0.457  0.00  0.00    +0.063 C 
BRANCH  10  11
ATOM     11  CG  PHE A   1      -0.097   0.356   0.500  0.00  0.00    -0.045 A 
ATOM     12  CD2 PHE A   1      -0.955  -0.568   1.110  0.00  0.00    +0.004 A 
ATOM     13  CE2 PHE A   1      -2.332  -0.344   1.146  0.00  0.00    +0.000 A 
ATOM     14  CZ  PHE A   1      -2.866   0.806   0.570  0.00  0.00    +0.000 A 
ATOM     15  CE1 PHE A   1      -2.024   1.730  -0.046  0.00  0.00    +0.000 A 
ATOM     16  CD1 PHE A   1      -0.645   1.507  -0.082  0.00  0.00    +0.004 A 
ENDBRANCH  10  11
ENDBRANCH   6  10
ENDBRANCH   2   6
ENDBRANCH   1   3
BRANCH   1  17
ATOM     17  C   GLN A   2       5.854   2.127  -1.252  0.00  0.00    +0.234 C 
ATOM     18  O   GLN A   2       5.067   2.990  -1.640  0.00  0.00    -0.274 OA
ATOM     19  N   SER A   3       7.113   2.428  -0.802  0.00  0.00    -0.301 N 
ATOM     20  H   SER A   3       7.770   1.693  -0.544  0.00  0.00    +0.150 HD
BRANCH  19  21
ATOM     21  CA  SER A   3       7.679   3.778  -0.879  0.00  0.00    +0.184 C 
BRANCH  21  22
ATOM     22  C   SER A   3       9.210   3.622  -0.860  0.00  0.00    +0.236 C 
ATOM     23  O   SER A   3       9.743   2.528  -0.664  0.00  0.00    -0.274 OA
ATOM     24  N   ALA A   4       9.933   4.758  -1.125  0.00  0.00    -0.305 N 
ATOM     25  H   ALA A   4       9.476   5.663  -1.213  0.00  0.00    +0.149 HD
BRANCH  24  26
ATOM     26  CA  ALA A   4      11.389   4.773  -1.102  0.00  0.00    +0.133 C 
ATOM     27  CB  ALA A   4      11.988   4.160  -2.359  0.00  0.00    +0.035 C 
BRANCH  26  28
ATOM     28  C   ALA A   4      11.843   6.220  -0.979  0.00  0.00    +0.245 C 
ATOM     29  O   ALA A   4      11.073   7.178  -1.035  0.00  0.00    -0.299 OA
ENDBRANCH  26  28
ENDBRANCH  24  26
ENDBRANCH  21  22
BRANCH  21  30
ATOM     30  CB  SER A   3       7.179   4.675   0.258  0.00  0.00    +0.187 C 
BRANCH  30  31
ATOM     31  OG  SER A   3       7.399   4.077   1.535  0.00  0.00    -0.393 OA
ATOM     32  H   SER A   3       6.942   3.217   1.523  0.00  0.00    +0.209 HD
ENDBRANCH  30  31
ENDBRANCH  21  30
ENDBRANCH  19  21
ENDBRANCH   1  17
BRANCH   1  33
ATOM     33  CB  GLN A   2       6.016  -0.049  -2.560  0.00  0.00    +0.041 C 
BRANCH  33  34
ATOM     34  CG  GLN A   2       7.539  -0.131  -2.652  0.00  0.00    +0.098 C 
BRANCH  34  35
ATOM     35  CD  GLN A   2       8.036  -1.169  -3.636  0.00  0.00    +0.211 C 
ATOM     36  OE1 GLN A   2       8.990  -1.902  -3.400  0.00  0.00    -0.276 OA
ATOM     37  NE2 GLN A   2       7.429  -1.202  -4.854  0.00  0.00    -0.329 N 
ATOM     38 HE21 GLN A   2       6.569  -0.718  -5.067  0.00  0.00    +0.145 HD
ATOM     39 HE22 GLN A   2       7.743  -1.916  -5.498  0.00  0.00    +0.145 HD
ENDBRANCH  34  35
ENDBRANCH  33  34
ENDBRANCH   1  33
TORSDOF 15
