MODEL 1
REMARK VINA RESULT:      -6.8      0.000      0.000
REMARK  Name = FQSA-mmff94.pdb
REMARK  16 active torsions:
REMARK  status: ('A' for Active; 'I' for Inactive)
REMARK    1  A    between atoms: _1  and  _2
REMARK    2  A    between atoms: _2  and  _3
REMARK    3  A    between atoms: _2  and  _5
REMARK    4  A    between atoms: _5  and  _6
REMARK    5  A    between atoms: _21  and  _22
REMARK    6  A    between atoms: _22  and  _23
REMARK    7  A    between atoms: _22  and  _25
REMARK    8  A    between atoms: _25  and  _26
REMARK    9  A    between atoms: _26  and  _27
REMARK   10  A    between atoms: _38  and  _39
REMARK   11  A    between atoms: _39  and  _40
REMARK   12  A    between atoms: _39  and  _42
REMARK   13  A    between atoms: _42  and  _43
REMARK   14  A    between atoms: _49  and  _50
REMARK   15  A    between atoms: _50  and  _51
REMARK   16  A    between atoms: _50  and  _53
REMARK                            x       y       z     vdW  Elec       q    Type
REMARK                         _______ _______ _______ _____ _____    ______ ____
ROOT
ATOM      1  CA  GLN A   2       9.548  -1.102  25.112  0.00  0.00    +0.159 C 
ENDROOT
BRANCH   1   3
ATOM      2  C   PHE A   1       9.862   0.709  23.447  0.00  0.00    +0.231 C 
ATOM      3  N   GLN A   2       9.155  -0.375  23.906  0.00  0.00    -0.303 N 
ATOM      4  H   GLN A   2       8.293  -0.666  23.451  0.00  0.00    +0.149 HD
ATOM      5  O   PHE A   1      10.884   1.111  24.002  0.00  0.00    -0.274 OA
BRANCH   2   6
ATOM      6  CA  PHE A   1       9.281   1.389  22.188  0.00  0.00    +0.142 C 
BRANCH   6   7
ATOM      7  N   PHE A   1      10.277   2.356  21.671  0.00  0.00    -0.320 NA
ATOM      8  H1  PHE A   1      10.421   3.077  22.378  0.00  0.00    +0.119 HD
ATOM      9  H2  PHE A   1      11.178   1.872  21.627  0.00  0.00    +0.119 HD
ENDBRANCH   6   7
BRANCH   6  10
ATOM     10  CB  PHE A   1       8.921   0.300  21.162  0.00  0.00    +0.063 C 
BRANCH  10  11
ATOM     11  CG  PHE A   1       7.681   0.603  20.354  0.00  0.00    -0.045 A 
ATOM     12  CD2 PHE A   1       6.679   1.428  20.880  0.00  0.00    +0.004 A 
ATOM     13  CE2 PHE A   1       5.527   1.706  20.142  0.00  0.00    +0.000 A 
ATOM     14  CZ  PHE A   1       5.364   1.159  18.872  0.00  0.00    +0.000 A 
ATOM     15  CE1 PHE A   1       6.351   0.332  18.340  0.00  0.00    +0.000 A 
ATOM     16  CD1 PHE A   1       7.505   0.053  19.077  0.00  0.00    +0.004 A 
ENDBRANCH  10  11
ENDBRANCH   6  10
ENDBRANCH   2   6
ENDBRANCH   1   3
BRANCH   1  17
ATOM     17  C   GLN A   2       9.350  -2.599  24.813  0.00  0.00    +0.234 C 
ATOM     18  O   GLN A   2       9.852  -3.145  23.831  0.00  0.00    -0.274 OA
ATOM     19  N   SER A   3       8.547  -3.271  25.698  0.00  0.00    -0.301 N 
ATOM     20  H   SER A   3       8.092  -2.785  26.470  0.00  0.00    +0.150 HD
BRANCH  19  21
ATOM     21  CA  SER A   3       8.102  -4.649  25.473  0.00  0.00    +0.184 C 
BRANCH  21  22
ATOM     22  C   SER A   3       6.857  -4.576  24.572  0.00  0.00    +0.236 C 
ATOM     23  O   SER A   3       5.720  -4.541  25.046  0.00  0.00    -0.274 OA
ATOM     24  N   ALA A   4       7.096  -4.498  23.222  0.00  0.00    -0.305 N 
ATOM     25  H   ALA A   4       8.037  -4.600  22.849  0.00  0.00    +0.149 HD
BRANCH  24  26
ATOM     26  CA  ALA A   4       6.017  -4.463  22.245  0.00  0.00    +0.133 C 
ATOM     27  CB  ALA A   4       5.965  -3.139  21.497  0.00  0.00    +0.035 C 
BRANCH  26  28
ATOM     28  C   ALA A   4       6.243  -5.595  21.254  0.00  0.00    +0.245 C 
ATOM     29  O   ALA A   4       5.955  -5.518  20.060  0.00  0.00    -0.299 OA
ENDBRANCH  26  28
ENDBRANCH  24  26
ENDBRANCH  21  22
BRANCH  21  30
ATOM     30  CB  SER A   3       7.816  -5.381  26.789  0.00  0.00    +0.187 C 
BRANCH  30  31
ATOM     31  OG  SER A   3       6.995  -4.600  27.657  0.00  0.00    -0.393 OA
ATOM     32  H   SER A   3       7.310  -3.681  27.586  0.00  0.00    +0.209 HD
ENDBRANCH  30  31
ENDBRANCH  21  30
ENDBRANCH  19  21
ENDBRANCH   1  17
BRANCH   1  33
ATOM     33  CB  GLN A   2       8.697  -0.647  26.309  0.00  0.00    +0.041 C 
BRANCH  33  34
ATOM     34  CG  GLN A   2       7.320  -0.110  25.919  0.00  0.00    +0.098 C 
BRANCH  34  35
ATOM     35  CD  GLN A   2       6.214  -1.139  26.015  0.00  0.00    +0.211 C 
ATOM     36  OE1 GLN A   2       6.038  -1.831  27.011  0.00  0.00    -0.276 OA
ATOM     37  NE2 GLN A   2       5.459  -1.335  24.899  0.00  0.00    -0.329 N 
ATOM     38 HE21 GLN A   2       5.470  -0.721  24.098  0.00  0.00    +0.145 HD
ATOM     39 HE22 GLN A   2       4.701  -2.001  24.976  0.00  0.00    +0.145 HD
ENDBRANCH  34  35
ENDBRANCH  33  34
ENDBRANCH   1  33
TORSDOF 15
ENDMDL
MODEL 2
REMARK VINA RESULT:      -6.6      2.882      5.329
REMARK  Name = FQSA-mmff94.pdb
REMARK  16 active torsions:
REMARK  status: ('A' for Active; 'I' for Inactive)
REMARK    1  A    between atoms: _1  and  _2
REMARK    2  A    between atoms: _2  and  _3
REMARK    3  A    between atoms: _2  and  _5
REMARK    4  A    between atoms: _5  and  _6
REMARK    5  A    between atoms: _21  and  _22
REMARK    6  A    between atoms: _22  and  _23
REMARK    7  A    between atoms: _22  and  _25
REMARK    8  A    between atoms: _25  and  _26
REMARK    9  A    between atoms: _26  and  _27
REMARK   10  A    between atoms: _38  and  _39
REMARK   11  A    between atoms: _39  and  _40
REMARK   12  A    between atoms: _39  and  _42
REMARK   13  A    between atoms: _42  and  _43
REMARK   14  A    between atoms: _49  and  _50
REMARK   15  A    between atoms: _50  and  _51
REMARK   16  A    between atoms: _50  and  _53
REMARK                            x       y       z     vdW  Elec       q    Type
REMARK                         _______ _______ _______ _____ _____    ______ ____
ROOT
ATOM      1  CA  GLN A   2       7.281   0.018  20.856  0.00  0.00    +0.159 C 
ENDROOT
BRANCH   1   3
ATOM      2  C   PHE A   1       7.144   2.338  21.723  0.00  0.00    +0.231 C 
ATOM      3  N   GLN A   2       7.880   1.210  21.455  0.00  0.00    -0.303 N 
ATOM      4  H   GLN A   2       8.885   1.195  21.608  0.00  0.00    +0.149 HD
ATOM      5  O   PHE A   1       5.934   2.400  21.507  0.00  0.00    -0.274 OA
BRANCH   2   6
ATOM      6  CA  PHE A   1       7.943   3.521  22.310  0.00  0.00    +0.142 C 
BRANCH   6   7
ATOM      7  N   PHE A   1       7.288   4.784  21.898  0.00  0.00    -0.320 NA
ATOM      8  H1  PHE A   1       7.845   5.207  21.156  0.00  0.00    +0.119 HD
ATOM      9  H2  PHE A   1       6.410   4.536  21.435  0.00  0.00    +0.119 HD
ENDBRANCH   6   7
BRANCH   6  10
ATOM     10  CB  PHE A   1       8.014   3.358  23.838  0.00  0.00    +0.063 C 
BRANCH  10  11
ATOM     11  CG  PHE A   1       8.803   2.153  24.292  0.00  0.00    -0.045 A 
ATOM     12  CD2 PHE A   1      10.164   2.040  23.979  0.00  0.00    +0.004 A 
ATOM     13  CE2 PHE A   1      10.897   0.925  24.387  0.00  0.00    +0.000 A 
ATOM     14  CZ  PHE A   1      10.277  -0.090  25.111  0.00  0.00    +0.000 A 
ATOM     15  CE1 PHE A   1       8.922   0.007  25.424  0.00  0.00    +0.000 A 
ATOM     16  CD1 PHE A   1       8.187   1.123  25.016  0.00  0.00    +0.004 A 
ENDBRANCH  10  11
ENDBRANCH   6  10
ENDBRANCH   2   6
ENDBRANCH   1   3
BRANCH   1  17
ATOM     17  C   GLN A   2       7.929  -1.198  21.542  0.00  0.00    +0.234 C 
ATOM     18  O   GLN A   2       9.145  -1.285  21.713  0.00  0.00    -0.274 OA
ATOM     19  N   SER A   3       7.061  -2.191  21.915  0.00  0.00    -0.301 N 
ATOM     20  H   SER A   3       6.066  -2.126  21.708  0.00  0.00    +0.150 HD
BRANCH  19  21
ATOM     21  CA  SER A   3       7.515  -3.493  22.414  0.00  0.00    +0.184 C 
BRANCH  21  22
ATOM     22  C   SER A   3       6.340  -4.472  22.240  0.00  0.00    +0.236 C 
ATOM     23  O   SER A   3       5.949  -4.816  21.123  0.00  0.00    -0.274 OA
ATOM     24  N   ALA A   4       5.798  -4.970  23.398  0.00  0.00    -0.305 N 
ATOM     25  H   ALA A   4       6.087  -4.619  24.308  0.00  0.00    +0.149 HD
BRANCH  24  26
ATOM     26  CA  ALA A   4       4.656  -5.874  23.392  0.00  0.00    +0.133 C 
ATOM     27  CB  ALA A   4       4.663  -6.813  24.590  0.00  0.00    +0.035 C 
BRANCH  26  28
ATOM     28  C   ALA A   4       3.389  -5.032  23.417  0.00  0.00    +0.245 C 
ATOM     29  O   ALA A   4       2.345  -5.363  22.856  0.00  0.00    -0.299 OA
ENDBRANCH  26  28
ENDBRANCH  24  26
ENDBRANCH  21  22
BRANCH  21  30
ATOM     30  CB  SER A   3       7.989  -3.416  23.869  0.00  0.00    +0.187 C 
BRANCH  30  31
ATOM     31  OG  SER A   3       9.413  -3.405  23.958  0.00  0.00    -0.393 OA
ATOM     32  H   SER A   3       9.646  -3.906  24.760  0.00  0.00    +0.209 HD
ENDBRANCH  30  31
ENDBRANCH  21  30
ENDBRANCH  19  21
ENDBRANCH   1  17
BRANCH   1  33
ATOM     33  CB  GLN A   2       7.524   0.006  19.338  0.00  0.00    +0.041 C 
BRANCH  33  34
ATOM     34  CG  GLN A   2       6.246  -0.111  18.509  0.00  0.00    +0.098 C 
BRANCH  34  35
ATOM     35  CD  GLN A   2       5.775   1.204  17.925  0.00  0.00    +0.211 C 
ATOM     36  OE1 GLN A   2       6.265   1.693  16.913  0.00  0.00    -0.276 OA
ATOM     37  NE2 GLN A   2       4.826   1.883  18.626  0.00  0.00    -0.329 N 
ATOM     38 HE21 GLN A   2       4.299   1.486  19.390  0.00  0.00    +0.145 HD
ATOM     39 HE22 GLN A   2       4.492   2.747  18.218  0.00  0.00    +0.145 HD
ENDBRANCH  34  35
ENDBRANCH  33  34
ENDBRANCH   1  33
TORSDOF 15
ENDMDL
MODEL 3
REMARK VINA RESULT:      -6.6      2.401      6.316
REMARK  Name = FQSA-mmff94.pdb
REMARK  16 active torsions:
REMARK  status: ('A' for Active; 'I' for Inactive)
REMARK    1  A    between atoms: _1  and  _2
REMARK    2  A    between atoms: _2  and  _3
REMARK    3  A    between atoms: _2  and  _5
REMARK    4  A    between atoms: _5  and  _6
REMARK    5  A    between atoms: _21  and  _22
REMARK    6  A    between atoms: _22  and  _23
REMARK    7  A    between atoms: _22  and  _25
REMARK    8  A    between atoms: _25  and  _26
REMARK    9  A    between atoms: _26  and  _27
REMARK   10  A    between atoms: _38  and  _39
REMARK   11  A    between atoms: _39  and  _40
REMARK   12  A    between atoms: _39  and  _42
REMARK   13  A    between atoms: _42  and  _43
REMARK   14  A    between atoms: _49  and  _50
REMARK   15  A    between atoms: _50  and  _51
REMARK   16  A    between atoms: _50  and  _53
REMARK                            x       y       z     vdW  Elec       q    Type
REMARK                         _______ _______ _______ _____ _____    ______ ____
ROOT
ATOM      1  CA  GLN A   2       9.041  -0.728  24.512  0.00  0.00    +0.159 C 
ENDROOT
BRANCH   1   3
ATOM      2  C   PHE A   1       8.506  -2.820  25.730  0.00  0.00    +0.231 C 
ATOM      3  N   GLN A   2       9.037  -2.185  24.635  0.00  0.00    -0.303 N 
ATOM      4  H   GLN A   2       9.505  -2.712  23.902  0.00  0.00    +0.149 HD
ATOM      5  O   PHE A   1       7.972  -2.205  26.653  0.00  0.00    -0.274 OA
BRANCH   2   6
ATOM      6  CA  PHE A   1       8.629  -4.359  25.721  0.00  0.00    +0.142 C 
BRANCH   6   7
ATOM      7  N   PHE A   1       9.366  -4.782  26.934  0.00  0.00    -0.320 NA
ATOM      8  H1  PHE A   1       8.736  -5.333  27.517  0.00  0.00    +0.119 HD
ATOM      9  H2  PHE A   1      10.079  -5.455  26.639  0.00  0.00    +0.119 HD
ENDBRANCH   6   7
BRANCH   6  10
ATOM     10  CB  PHE A   1       7.218  -4.966  25.642  0.00  0.00    +0.063 C 
BRANCH  10  11
ATOM     11  CG  PHE A   1       6.752  -5.258  24.235  0.00  0.00    -0.045 A 
ATOM     12  CD2 PHE A   1       5.388  -5.418  23.961  0.00  0.00    +0.004 A 
ATOM     13  CE2 PHE A   1       4.950  -5.697  22.666  0.00  0.00    +0.000 A 
ATOM     14  CZ  PHE A   1       5.873  -5.821  21.630  0.00  0.00    +0.000 A 
ATOM     15  CE1 PHE A   1       7.234  -5.671  21.891  0.00  0.00    +0.000 A 
ATOM     16  CD1 PHE A   1       7.673  -5.391  23.187  0.00  0.00    +0.004 A 
ENDBRANCH  10  11
ENDBRANCH   6  10
ENDBRANCH   2   6
ENDBRANCH   1   3
BRANCH   1  17
ATOM     17  C   GLN A   2       7.728  -0.338  23.807  0.00  0.00    +0.234 C 
ATOM     18  O   GLN A   2       7.109  -1.124  23.091  0.00  0.00    -0.274 OA
ATOM     19  N   SER A   3       7.319   0.955  24.006  0.00  0.00    -0.301 N 
ATOM     20  H   SER A   3       7.880   1.607  24.553  0.00  0.00    +0.150 HD
BRANCH  19  21
ATOM     21  CA  SER A   3       6.198   1.552  23.274  0.00  0.00    +0.184 C 
BRANCH  21  22
ATOM     22  C   SER A   3       6.673   1.763  21.825  0.00  0.00    +0.236 C 
ATOM     23  O   SER A   3       7.355   2.739  21.507  0.00  0.00    -0.274 OA
ATOM     24  N   ALA A   4       6.335   0.776  20.933  0.00  0.00    -0.305 N 
ATOM     25  H   ALA A   4       5.713   0.017  21.200  0.00  0.00    +0.149 HD
BRANCH  24  26
ATOM     26  CA  ALA A   4       6.680   0.857  19.520  0.00  0.00    +0.133 C 
ATOM     27  CB  ALA A   4       7.887  -0.002  19.175  0.00  0.00    +0.035 C 
BRANCH  26  28
ATOM     28  C   ALA A   4       5.478   0.389  18.714  0.00  0.00    +0.245 C 
ATOM     29  O   ALA A   4       5.571  -0.167  17.620  0.00  0.00    -0.299 OA
ENDBRANCH  26  28
ENDBRANCH  24  26
ENDBRANCH  21  22
BRANCH  21  30
ATOM     30  CB  SER A   3       5.723   2.858  23.918  0.00  0.00    +0.187 C 
BRANCH  30  31
ATOM     31  OG  SER A   3       6.816   3.727  24.212  0.00  0.00    -0.393 OA
ATOM     32  H   SER A   3       6.647   4.560  23.736  0.00  0.00    +0.209 HD
ENDBRANCH  30  31
ENDBRANCH  21  30
ENDBRANCH  19  21
ENDBRANCH   1  17
BRANCH   1  33
ATOM     33  CB  GLN A   2      10.269  -0.264  23.712  0.00  0.00    +0.041 C 
BRANCH  33  34
ATOM     34  CG  GLN A   2      10.808   1.100  24.142  0.00  0.00    +0.098 C 
BRANCH  34  35
ATOM     35  CD  GLN A   2      10.241   2.257  23.347  0.00  0.00    +0.211 C 
ATOM     36  OE1 GLN A   2       9.677   3.209  23.874  0.00  0.00    -0.276 OA
ATOM     37  NE2 GLN A   2      10.304   2.161  21.991  0.00  0.00    -0.329 N 
ATOM     38 HE21 GLN A   2      10.857   1.474  21.500  0.00  0.00    +0.145 HD
ATOM     39 HE22 GLN A   2       9.951   2.949  21.463  0.00  0.00    +0.145 HD
ENDBRANCH  34  35
ENDBRANCH  33  34
ENDBRANCH   1  33
TORSDOF 15
ENDMDL
MODEL 4
REMARK VINA RESULT:      -6.5      1.781      2.707
REMARK  Name = FQSA-mmff94.pdb
REMARK  16 active torsions:
REMARK  status: ('A' for Active; 'I' for Inactive)
REMARK    1  A    between atoms: _1  and  _2
REMARK    2  A    between atoms: _2  and  _3
REMARK    3  A    between atoms: _2  and  _5
REMARK    4  A    between atoms: _5  and  _6
REMARK    5  A    between atoms: _21  and  _22
REMARK    6  A    between atoms: _22  and  _23
REMARK    7  A    between atoms: _22  and  _25
REMARK    8  A    between atoms: _25  and  _26
REMARK    9  A    between atoms: _26  and  _27
REMARK   10  A    between atoms: _38  and  _39
REMARK   11  A    between atoms: _39  and  _40
REMARK   12  A    between atoms: _39  and  _42
REMARK   13  A    between atoms: _42  and  _43
REMARK   14  A    between atoms: _49  and  _50
REMARK   15  A    between atoms: _50  and  _51
REMARK   16  A    between atoms: _50  and  _53
REMARK                            x       y       z     vdW  Elec       q    Type
REMARK                         _______ _______ _______ _____ _____    ______ ____
ROOT
ATOM      1  CA  GLN A   2       9.185  -1.001  25.062  0.00  0.00    +0.159 C 
ENDROOT
BRANCH   1   3
ATOM      2  C   PHE A   1       9.672   0.853  23.488  0.00  0.00    +0.231 C 
ATOM      3  N   GLN A   2       8.963  -0.278  23.810  0.00  0.00    -0.303 N 
ATOM      4  H   GLN A   2       8.212  -0.612  23.211  0.00  0.00    +0.149 HD
ATOM      5  O   PHE A   1      10.556   1.304  24.215  0.00  0.00    -0.274 OA
BRANCH   2   6
ATOM      6  CA  PHE A   1       9.277   1.518  22.152  0.00  0.00    +0.142 C 
BRANCH   6   7
ATOM      7  N   PHE A   1      10.398   2.376  21.702  0.00  0.00    -0.320 NA
ATOM      8  H1  PHE A   1      10.723   2.922  22.499  0.00  0.00    +0.119 HD
ATOM      9  H2  PHE A   1      11.187   1.760  21.489  0.00  0.00    +0.119 HD
ENDBRANCH   6   7
BRANCH   6  10
ATOM     10  CB  PHE A   1       8.928   0.416  21.137  0.00  0.00    +0.063 C 
BRANCH  10  11
ATOM     11  CG  PHE A   1       7.670   0.685  20.345  0.00  0.00    -0.045 A 
ATOM     12  CD2 PHE A   1       6.652   1.481  20.885  0.00  0.00    +0.004 A 
ATOM     13  CE2 PHE A   1       5.483   1.727  20.163  0.00  0.00    +0.000 A 
ATOM     14  CZ  PHE A   1       5.320   1.179  18.894  0.00  0.00    +0.000 A 
ATOM     15  CE1 PHE A   1       6.323   0.380  18.348  0.00  0.00    +0.000 A 
ATOM     16  CD1 PHE A   1       7.493   0.133  19.069  0.00  0.00    +0.004 A 
ENDBRANCH  10  11
ENDBRANCH   6  10
ENDBRANCH   2   6
ENDBRANCH   1   3
BRANCH   1  17
ATOM     17  C   GLN A   2       9.223  -2.499  24.710  0.00  0.00    +0.234 C 
ATOM     18  O   GLN A   2       9.973  -2.951  23.845  0.00  0.00    -0.274 OA
ATOM     19  N   SER A   3       8.339  -3.286  25.401  0.00  0.00    -0.301 N 
ATOM     20  H   SER A   3       7.684  -2.880  26.069  0.00  0.00    +0.150 HD
BRANCH  19  21
ATOM     21  CA  SER A   3       8.109  -4.695  25.072  0.00  0.00    +0.184 C 
BRANCH  21  22
ATOM     22  C   SER A   3       6.617  -4.976  25.326  0.00  0.00    +0.236 C 
ATOM     23  O   SER A   3       5.737  -4.420  24.666  0.00  0.00    -0.274 OA
ATOM     24  N   ALA A   4       6.338  -5.913  26.289  0.00  0.00    -0.305 N 
ATOM     25  H   ALA A   4       7.075  -6.306  26.870  0.00  0.00    +0.149 HD
BRANCH  24  26
ATOM     26  CA  ALA A   4       4.973  -6.253  26.666  0.00  0.00    +0.133 C 
ATOM     27  CB  ALA A   4       4.318  -7.192  25.664  0.00  0.00    +0.035 C 
BRANCH  26  28
ATOM     28  C   ALA A   4       5.015  -6.921  28.033  0.00  0.00    +0.245 C 
ATOM     29  O   ALA A   4       6.044  -7.374  28.533  0.00  0.00    -0.299 OA
ENDBRANCH  26  28
ENDBRANCH  24  26
ENDBRANCH  21  22
BRANCH  21  30
ATOM     30  CB  SER A   3       9.015  -5.628  25.882  0.00  0.00    +0.187 C 
BRANCH  30  31
ATOM     31  OG  SER A   3      10.367  -5.573  25.428  0.00  0.00    -0.393 OA
ATOM     32  H   SER A   3      10.514  -4.669  25.098  0.00  0.00    +0.209 HD
ENDBRANCH  30  31
ENDBRANCH  21  30
ENDBRANCH  19  21
ENDBRANCH   1  17
BRANCH   1  33
ATOM     33  CB  GLN A   2       8.063  -0.685  26.065  0.00  0.00    +0.041 C 
BRANCH  33  34
ATOM     34  CG  GLN A   2       6.991   0.255  25.517  0.00  0.00    +0.098 C 
BRANCH  34  35
ATOM     35  CD  GLN A   2       5.654  -0.415  25.281  0.00  0.00    +0.211 C 
ATOM     36  OE1 GLN A   2       4.629  -0.070  25.858  0.00  0.00    -0.276 OA
ATOM     37  NE2 GLN A   2       5.645  -1.495  24.452  0.00  0.00    -0.329 N 
ATOM     38 HE21 GLN A   2       6.418  -1.752  23.856  0.00  0.00    +0.145 HD
ATOM     39 HE22 GLN A   2       4.746  -1.921  24.273  0.00  0.00    +0.145 HD
ENDBRANCH  34  35
ENDBRANCH  33  34
ENDBRANCH   1  33
TORSDOF 15
ENDMDL
MODEL 5
REMARK VINA RESULT:      -6.4      2.462      4.745
REMARK  Name = FQSA-mmff94.pdb
REMARK  16 active torsions:
REMARK  status: ('A' for Active; 'I' for Inactive)
REMARK    1  A    between atoms: _1  and  _2
REMARK    2  A    between atoms: _2  and  _3
REMARK    3  A    between atoms: _2  and  _5
REMARK    4  A    between atoms: _5  and  _6
REMARK    5  A    between atoms: _21  and  _22
REMARK    6  A    between atoms: _22  and  _23
REMARK    7  A    between atoms: _22  and  _25
REMARK    8  A    between atoms: _25  and  _26
REMARK    9  A    between atoms: _26  and  _27
REMARK   10  A    between atoms: _38  and  _39
REMARK   11  A    between atoms: _39  and  _40
REMARK   12  A    between atoms: _39  and  _42
REMARK   13  A    between atoms: _42  and  _43
REMARK   14  A    between atoms: _49  and  _50
REMARK   15  A    between atoms: _50  and  _51
REMARK   16  A    between atoms: _50  and  _53
REMARK                            x       y       z     vdW  Elec       q    Type
REMARK                         _______ _______ _______ _____ _____    ______ ____
ROOT
ATOM      1  CA  GLN A   2       9.285  -3.825  24.207  0.00  0.00    +0.159 C 
ENDROOT
BRANCH   1   3
ATOM      2  C   PHE A   1       9.785  -1.420  23.870  0.00  0.00    +0.231 C 
ATOM      3  N   GLN A   2       9.131  -2.413  24.555  0.00  0.00    -0.303 N 
ATOM      4  H   GLN A   2       8.566  -2.197  25.373  0.00  0.00    +0.149 HD
ATOM      5  O   PHE A   1      10.510  -1.655  22.904  0.00  0.00    -0.274 OA
BRANCH   2   6
ATOM      6  CA  PHE A   1       9.548   0.011  24.400  0.00  0.00    +0.142 C 
BRANCH   6   7
ATOM      7  N   PHE A   1       9.820   0.027  25.855  0.00  0.00    -0.320 NA
ATOM      8  H1  PHE A   1       9.544   0.938  26.223  0.00  0.00    +0.119 HD
ATOM      9  H2  PHE A   1       9.165  -0.624  26.296  0.00  0.00    +0.119 HD
ENDBRANCH   6   7
BRANCH   6  10
ATOM     10  CB  PHE A   1      10.446   0.983  23.615  0.00  0.00    +0.063 C 
BRANCH  10  11
ATOM     11  CG  PHE A   1      10.128   2.440  23.850  0.00  0.00    -0.045 A 
ATOM     12  CD2 PHE A   1       8.930   2.810  24.476  0.00  0.00    +0.004 A 
ATOM     13  CE2 PHE A   1       8.625   4.155  24.688  0.00  0.00    +0.000 A 
ATOM     14  CZ  PHE A   1       9.513   5.145  24.275  0.00  0.00    +0.000 A 
ATOM     15  CE1 PHE A   1      10.705   4.791  23.645  0.00  0.00    +0.000 A 
ATOM     16  CD1 PHE A   1      11.012   3.444  23.433  0.00  0.00    +0.004 A 
ENDBRANCH  10  11
ENDBRANCH   6  10
ENDBRANCH   2   6
ENDBRANCH   1   3
BRANCH   1  17
ATOM     17  C   GLN A   2       8.010  -4.238  23.450  0.00  0.00    +0.234 C 
ATOM     18  O   GLN A   2       7.653  -5.413  23.356  0.00  0.00    -0.274 OA
ATOM     19  N   SER A   3       7.322  -3.211  22.858  0.00  0.00    -0.301 N 
ATOM     20  H   SER A   3       7.669  -2.254  22.897  0.00  0.00    +0.150 HD
BRANCH  19  21
ATOM     21  CA  SER A   3       6.193  -3.434  21.950  0.00  0.00    +0.184 C 
BRANCH  21  22
ATOM     22  C   SER A   3       6.096  -2.194  21.045  0.00  0.00    +0.236 C 
ATOM     23  O   SER A   3       5.420  -2.200  20.014  0.00  0.00    -0.274 OA
ATOM     24  N   ALA A   4       6.762  -1.076  21.483  0.00  0.00    -0.305 N 
ATOM     25  H   ALA A   4       7.371  -1.114  22.298  0.00  0.00    +0.149 HD
BRANCH  24  26
ATOM     26  CA  ALA A   4       6.794   0.159  20.713  0.00  0.00    +0.133 C 
ATOM     27  CB  ALA A   4       7.116   1.367  21.580  0.00  0.00    +0.035 C 
BRANCH  26  28
ATOM     28  C   ALA A   4       7.857   0.013  19.634  0.00  0.00    +0.245 C 
ATOM     29  O   ALA A   4       7.625   0.147  18.433  0.00  0.00    -0.299 OA
ENDBRANCH  26  28
ENDBRANCH  24  26
ENDBRANCH  21  22
BRANCH  21  30
ATOM     30  CB  SER A   3       4.888  -3.694  22.710  0.00  0.00    +0.187 C 
BRANCH  30  31
ATOM     31  OG  SER A   3       4.496  -5.064  22.628  0.00  0.00    -0.393 OA
ATOM     32  H   SER A   3       5.182  -5.579  23.089  0.00  0.00    +0.209 HD
ENDBRANCH  30  31
ENDBRANCH  21  30
ENDBRANCH  19  21
ENDBRANCH   1  17
BRANCH   1  33
ATOM     33  CB  GLN A   2       9.485  -4.668  25.478  0.00  0.00    +0.041 C 
BRANCH  33  34
ATOM     34  CG  GLN A   2       8.674  -4.179  26.677  0.00  0.00    +0.098 C 
BRANCH  34  35
ATOM     35  CD  GLN A   2       7.384  -4.942  26.893  0.00  0.00    +0.211 C 
ATOM     36  OE1 GLN A   2       6.296  -4.524  26.513  0.00  0.00    -0.276 OA
ATOM     37  NE2 GLN A   2       7.463  -6.091  27.618  0.00  0.00    -0.329 N 
ATOM     38 HE21 GLN A   2       8.332  -6.550  27.851  0.00  0.00    +0.145 HD
ATOM     39 HE22 GLN A   2       6.605  -6.614  27.735  0.00  0.00    +0.145 HD
ENDBRANCH  34  35
ENDBRANCH  33  34
ENDBRANCH   1  33
TORSDOF 15
ENDMDL
MODEL 6
REMARK VINA RESULT:      -6.4      1.967      3.823
REMARK  Name = FQSA-mmff94.pdb
REMARK  16 active torsions:
REMARK  status: ('A' for Active; 'I' for Inactive)
REMARK    1  A    between atoms: _1  and  _2
REMARK    2  A    between atoms: _2  and  _3
REMARK    3  A    between atoms: _2  and  _5
REMARK    4  A    between atoms: _5  and  _6
REMARK    5  A    between atoms: _21  and  _22
REMARK    6  A    between atoms: _22  and  _23
REMARK    7  A    between atoms: _22  and  _25
REMARK    8  A    between atoms: _25  and  _26
REMARK    9  A    between atoms: _26  and  _27
REMARK   10  A    between atoms: _38  and  _39
REMARK   11  A    between atoms: _39  and  _40
REMARK   12  A    between atoms: _39  and  _42
REMARK   13  A    between atoms: _42  and  _43
REMARK   14  A    between atoms: _49  and  _50
REMARK   15  A    between atoms: _50  and  _51
REMARK   16  A    between atoms: _50  and  _53
REMARK                            x       y       z     vdW  Elec       q    Type
REMARK                         _______ _______ _______ _____ _____    ______ ____
ROOT
ATOM      1  CA  GLN A   2       8.286  -2.457  24.509  0.00  0.00    +0.159 C 
ENDROOT
BRANCH   1   3
ATOM      2  C   PHE A   1       9.762  -0.662  23.646  0.00  0.00    +0.231 C 
ATOM      3  N   GLN A   2       8.666  -1.052  24.375  0.00  0.00    -0.303 N 
ATOM      4  H   GLN A   2       8.121  -0.373  24.900  0.00  0.00    +0.149 HD
ATOM      5  O   PHE A   1      10.467  -1.465  23.036  0.00  0.00    -0.274 OA
BRANCH   2   6
ATOM      6  CA  PHE A   1      10.048   0.856  23.650  0.00  0.00    +0.142 C 
BRANCH   6   7
ATOM      7  N   PHE A   1      11.334   1.093  24.346  0.00  0.00    -0.320 NA
ATOM      8  H1  PHE A   1      11.881   0.232  24.311  0.00  0.00    +0.119 HD
ATOM      9  H2  PHE A   1      11.873   1.749  23.776  0.00  0.00    +0.119 HD
ENDBRANCH   6   7
BRANCH   6  10
ATOM     10  CB  PHE A   1      10.057   1.359  22.196  0.00  0.00    +0.063 C 
BRANCH  10  11
ATOM     11  CG  PHE A   1       8.726   1.233  21.493  0.00  0.00    -0.045 A 
ATOM     12  CD2 PHE A   1       8.531   0.243  20.522  0.00  0.00    +0.004 A 
ATOM     13  CE2 PHE A   1       7.307   0.125  19.862  0.00  0.00    +0.000 A 
ATOM     14  CZ  PHE A   1       6.266   1.000  20.164  0.00  0.00    +0.000 A 
ATOM     15  CE1 PHE A   1       6.450   1.994  21.124  0.00  0.00    +0.000 A 
ATOM     16  CD1 PHE A   1       7.674   2.112  21.786  0.00  0.00    +0.004 A 
ENDBRANCH  10  11
ENDBRANCH   6  10
ENDBRANCH   2   6
ENDBRANCH   1   3
BRANCH   1  17
ATOM     17  C   GLN A   2       7.195  -2.725  23.455  0.00  0.00    +0.234 C 
ATOM     18  O   GLN A   2       6.503  -1.824  22.983  0.00  0.00    -0.274 OA
ATOM     19  N   SER A   3       7.027  -4.041  23.109  0.00  0.00    -0.301 N 
ATOM     20  H   SER A   3       7.570  -4.777  23.558  0.00  0.00    +0.150 HD
BRANCH  19  21
ATOM     21  CA  SER A   3       5.922  -4.501  22.263  0.00  0.00    +0.184 C 
BRANCH  21  22
ATOM     22  C   SER A   3       4.774  -4.902  23.206  0.00  0.00    +0.236 C 
ATOM     23  O   SER A   3       3.617  -5.020  22.798  0.00  0.00    -0.274 OA
ATOM     24  N   ALA A   4       5.129  -5.167  24.505  0.00  0.00    -0.305 N 
ATOM     25  H   ALA A   4       6.076  -4.994  24.837  0.00  0.00    +0.149 HD
BRANCH  24  26
ATOM     26  CA  ALA A   4       4.146  -5.518  25.521  0.00  0.00    +0.133 C 
ATOM     27  CB  ALA A   4       4.279  -6.966  25.969  0.00  0.00    +0.035 C 
BRANCH  26  28
ATOM     28  C   ALA A   4       4.354  -4.598  26.715  0.00  0.00    +0.245 C 
ATOM     29  O   ALA A   4       5.237  -4.767  27.554  0.00  0.00    -0.299 OA
ENDBRANCH  26  28
ENDBRANCH  24  26
ENDBRANCH  21  22
BRANCH  21  30
ATOM     30  CB  SER A   3       6.343  -5.656  21.348  0.00  0.00    +0.187 C 
BRANCH  30  31
ATOM     31  OG  SER A   3       6.072  -6.924  21.943  0.00  0.00    -0.393 OA
ATOM     32  H   SER A   3       5.599  -7.451  21.274  0.00  0.00    +0.209 HD
ENDBRANCH  30  31
ENDBRANCH  21  30
ENDBRANCH  19  21
ENDBRANCH   1  17
BRANCH   1  33
ATOM     33  CB  GLN A   2       7.776  -2.738  25.932  0.00  0.00    +0.041 C 
BRANCH  33  34
ATOM     34  CG  GLN A   2       8.592  -3.787  26.685  0.00  0.00    +0.098 C 
BRANCH  34  35
ATOM     35  CD  GLN A   2       8.715  -5.106  25.952  0.00  0.00    +0.211 C 
ATOM     36  OE1 GLN A   2       7.748  -5.813  25.693  0.00  0.00    -0.276 OA
ATOM     37  NE2 GLN A   2       9.975  -5.532  25.661  0.00  0.00    -0.329 N 
ATOM     38 HE21 GLN A   2      10.796  -4.950  25.734  0.00  0.00    +0.145 HD
ATOM     39 HE22 GLN A   2      10.053  -6.399  25.145  0.00  0.00    +0.145 HD
ENDBRANCH  34  35
ENDBRANCH  33  34
ENDBRANCH   1  33
TORSDOF 15
ENDMDL
MODEL 7
REMARK VINA RESULT:      -6.4      2.718      7.051
REMARK  Name = FQSA-mmff94.pdb
REMARK  16 active torsions:
REMARK  status: ('A' for Active; 'I' for Inactive)
REMARK    1  A    between atoms: _1  and  _2
REMARK    2  A    between atoms: _2  and  _3
REMARK    3  A    between atoms: _2  and  _5
REMARK    4  A    between atoms: _5  and  _6
REMARK    5  A    between atoms: _21  and  _22
REMARK    6  A    between atoms: _22  and  _23
REMARK    7  A    between atoms: _22  and  _25
REMARK    8  A    between atoms: _25  and  _26
REMARK    9  A    between atoms: _26  and  _27
REMARK   10  A    between atoms: _38  and  _39
REMARK   11  A    between atoms: _39  and  _40
REMARK   12  A    between atoms: _39  and  _42
REMARK   13  A    between atoms: _42  and  _43
REMARK   14  A    between atoms: _49  and  _50
REMARK   15  A    between atoms: _50  and  _51
REMARK   16  A    between atoms: _50  and  _53
REMARK                            x       y       z     vdW  Elec       q    Type
REMARK                         _______ _______ _______ _____ _____    ______ ____
ROOT
ATOM      1  CA  GLN A   2      10.049  -0.381  22.872  0.00  0.00    +0.159 C 
ENDROOT
BRANCH   1   3
ATOM      2  C   PHE A   1       9.420  -2.402  24.164  0.00  0.00    +0.231 C 
ATOM      3  N   GLN A   2       9.163  -1.109  23.780  0.00  0.00    -0.303 N 
ATOM      4  H   GLN A   2       8.308  -0.640  24.067  0.00  0.00    +0.149 HD
ATOM      5  O   PHE A   1      10.424  -3.010  23.797  0.00  0.00    -0.274 OA
BRANCH   2   6
ATOM      6  CA  PHE A   1       8.357  -3.037  25.087  0.00  0.00    +0.142 C 
BRANCH   6   7
ATOM      7  N   PHE A   1       8.383  -2.335  26.391  0.00  0.00    -0.320 NA
ATOM      8  H1  PHE A   1       9.042  -1.558  26.324  0.00  0.00    +0.119 HD
ATOM      9  H2  PHE A   1       7.476  -1.876  26.509  0.00  0.00    +0.119 HD
ENDBRANCH   6   7
BRANCH   6  10
ATOM     10  CB  PHE A   1       6.987  -2.952  24.393  0.00  0.00    +0.063 C 
BRANCH  10  11
ATOM     11  CG  PHE A   1       6.815  -3.924  23.250  0.00  0.00    -0.045 A 
ATOM     12  CD2 PHE A   1       6.060  -3.567  22.126  0.00  0.00    +0.004 A 
ATOM     13  CE2 PHE A   1       5.889  -4.463  21.070  0.00  0.00    +0.000 A 
ATOM     14  CZ  PHE A   1       6.470  -5.727  21.128  0.00  0.00    +0.000 A 
ATOM     15  CE1 PHE A   1       7.217  -6.098  22.244  0.00  0.00    +0.000 A 
ATOM     16  CD1 PHE A   1       7.390  -5.201  23.302  0.00  0.00    +0.004 A 
ENDBRANCH  10  11
ENDBRANCH   6  10
ENDBRANCH   2   6
ENDBRANCH   1   3
BRANCH   1  17
ATOM     17  C   GLN A   2      10.608   0.817  23.662  0.00  0.00    +0.234 C 
ATOM     18  O   GLN A   2      11.208   0.677  24.728  0.00  0.00    -0.274 OA
ATOM     19  N   SER A   3      10.359   2.048  23.114  0.00  0.00    -0.301 N 
ATOM     20  H   SER A   3       9.806   2.143  22.263  0.00  0.00    +0.150 HD
BRANCH  19  21
ATOM     21  CA  SER A   3      10.655   3.301  23.815  0.00  0.00    +0.184 C 
BRANCH  21  22
ATOM     22  C   SER A   3       9.330   4.075  23.925  0.00  0.00    +0.236 C 
ATOM     23  O   SER A   3       9.068   4.765  24.912  0.00  0.00    -0.274 OA
ATOM     24  N   ALA A   4       8.492   3.990  22.841  0.00  0.00    -0.305 N 
ATOM     25  H   ALA A   4       8.695   3.359  22.069  0.00  0.00    +0.149 HD
BRANCH  24  26
ATOM     26  CA  ALA A   4       7.187   4.635  22.817  0.00  0.00    +0.133 C 
ATOM     27  CB  ALA A   4       7.169   5.857  21.910  0.00  0.00    +0.035 C 
BRANCH  26  28
ATOM     28  C   ALA A   4       6.169   3.620  22.320  0.00  0.00    +0.245 C 
ATOM     29  O   ALA A   4       6.466   2.645  21.632  0.00  0.00    -0.299 OA
ENDBRANCH  26  28
ENDBRANCH  24  26
ENDBRANCH  21  22
BRANCH  21  30
ATOM     30  CB  SER A   3      11.738   4.115  23.099  0.00  0.00    +0.187 C 
BRANCH  30  31
ATOM     31  OG  SER A   3      11.320   5.460  22.871  0.00  0.00    -0.393 OA
ATOM     32  H   SER A   3      10.352   5.438  22.768  0.00  0.00    +0.209 HD
ENDBRANCH  30  31
ENDBRANCH  21  30
ENDBRANCH  19  21
ENDBRANCH   1  17
BRANCH   1  33
ATOM     33  CB  GLN A   2       9.274   0.078  21.626  0.00  0.00    +0.041 C 
BRANCH  33  34
ATOM     34  CG  GLN A   2       7.998  -0.720  21.363  0.00  0.00    +0.098 C 
BRANCH  34  35
ATOM     35  CD  GLN A   2       7.247  -0.280  20.124  0.00  0.00    +0.211 C 
ATOM     36  OE1 GLN A   2       7.733   0.475  19.288  0.00  0.00    -0.276 OA
ATOM     37  NE2 GLN A   2       5.954  -0.689  20.011  0.00  0.00    -0.329 N 
ATOM     38 HE21 GLN A   2       5.536  -1.402  20.592  0.00  0.00    +0.145 HD
ATOM     39 HE22 GLN A   2       5.464  -0.418  19.168  0.00  0.00    +0.145 HD
ENDBRANCH  34  35
ENDBRANCH  33  34
ENDBRANCH   1  33
TORSDOF 15
ENDMDL
MODEL 8
REMARK VINA RESULT:      -6.4      2.173      7.167
REMARK  Name = FQSA-mmff94.pdb
REMARK  16 active torsions:
REMARK  status: ('A' for Active; 'I' for Inactive)
REMARK    1  A    between atoms: _1  and  _2
REMARK    2  A    between atoms: _2  and  _3
REMARK    3  A    between atoms: _2  and  _5
REMARK    4  A    between atoms: _5  and  _6
REMARK    5  A    between atoms: _21  and  _22
REMARK    6  A    between atoms: _22  and  _23
REMARK    7  A    between atoms: _22  and  _25
REMARK    8  A    between atoms: _25  and  _26
REMARK    9  A    between atoms: _26  and  _27
REMARK   10  A    between atoms: _38  and  _39
REMARK   11  A    between atoms: _39  and  _40
REMARK   12  A    between atoms: _39  and  _42
REMARK   13  A    between atoms: _42  and  _43
REMARK   14  A    between atoms: _49  and  _50
REMARK   15  A    between atoms: _50  and  _51
REMARK   16  A    between atoms: _50  and  _53
REMARK                            x       y       z     vdW  Elec       q    Type
REMARK                         _______ _______ _______ _____ _____    ______ ____
ROOT
ATOM      1  CA  GLN A   2       7.426  -1.650  21.237  0.00  0.00    +0.159 C 
ENDROOT
BRANCH   1   3
ATOM      2  C   PHE A   1       5.916  -3.475  21.971  0.00  0.00    +0.231 C 
ATOM      3  N   GLN A   2       6.769  -2.444  22.275  0.00  0.00    -0.303 N 
ATOM      4  H   GLN A   2       6.919  -2.158  23.239  0.00  0.00    +0.149 HD
ATOM      5  O   PHE A   1       5.681  -3.815  20.811  0.00  0.00    -0.274 OA
BRANCH   2   6
ATOM      6  CA  PHE A   1       5.271  -4.176  23.186  0.00  0.00    +0.142 C 
BRANCH   6   7
ATOM      7  N   PHE A   1       3.871  -4.518  22.846  0.00  0.00    -0.320 NA
ATOM      8  H1  PHE A   1       3.610  -5.355  23.368  0.00  0.00    +0.119 HD
ATOM      9  H2  PHE A   1       3.273  -3.787  23.240  0.00  0.00    +0.119 HD
ENDBRANCH   6   7
BRANCH   6  10
ATOM     10  CB  PHE A   1       6.114  -5.410  23.549  0.00  0.00    +0.063 C 
BRANCH  10  11
ATOM     11  CG  PHE A   1       7.157  -5.153  24.610  0.00  0.00    -0.045 A 
ATOM     12  CD2 PHE A   1       8.468  -4.817  24.246  0.00  0.00    +0.004 A 
ATOM     13  CE2 PHE A   1       9.440  -4.586  25.221  0.00  0.00    +0.000 A 
ATOM     14  CZ  PHE A   1       9.112  -4.691  26.570  0.00  0.00    +0.000 A 
ATOM     15  CE1 PHE A   1       7.813  -5.031  26.945  0.00  0.00    +0.000 A 
ATOM     16  CD1 PHE A   1       6.839  -5.261  25.970  0.00  0.00    +0.004 A 
ENDBRANCH  10  11
ENDBRANCH   6  10
ENDBRANCH   2   6
ENDBRANCH   1   3
BRANCH   1  17
ATOM     17  C   GLN A   2       8.792  -1.220  21.804  0.00  0.00    +0.234 C 
ATOM     18  O   GLN A   2       9.758  -1.981  21.838  0.00  0.00    -0.274 OA
ATOM     19  N   SER A   3       8.843   0.056  22.301  0.00  0.00    -0.301 N 
ATOM     20  H   SER A   3       8.014   0.648  22.320  0.00  0.00    +0.150 HD
BRANCH  19  21
ATOM     21  CA  SER A   3       9.999   0.572  23.040  0.00  0.00    +0.184 C 
BRANCH  21  22
ATOM     22  C   SER A   3       9.707   0.356  24.535  0.00  0.00    +0.236 C 
ATOM     23  O   SER A   3      10.616   0.223  25.356  0.00  0.00    -0.274 OA
ATOM     24  N   ALA A   4       8.383   0.374  24.897  0.00  0.00    -0.305 N 
ATOM     25  H   ALA A   4       7.647   0.414  24.196  0.00  0.00    +0.149 HD
BRANCH  24  26
ATOM     26  CA  ALA A   4       7.951   0.143  26.269  0.00  0.00    +0.133 C 
ATOM     27  CB  ALA A   4       7.095   1.283  26.799  0.00  0.00    +0.035 C 
BRANCH  26  28
ATOM     28  C   ALA A   4       7.149  -1.149  26.299  0.00  0.00    +0.245 C 
ATOM     29  O   ALA A   4       6.866  -1.794  25.290  0.00  0.00    -0.299 OA
ENDBRANCH  26  28
ENDBRANCH  24  26
ENDBRANCH  21  22
BRANCH  21  30
ATOM     30  CB  SER A   3      10.277   2.044  22.716  0.00  0.00    +0.187 C 
BRANCH  30  31
ATOM     31  OG  SER A   3       9.642   2.444  21.502  0.00  0.00    -0.393 OA
ATOM     32  H   SER A   3       8.869   1.863  21.387  0.00  0.00    +0.209 HD
ENDBRANCH  30  31
ENDBRANCH  21  30
ENDBRANCH  19  21
ENDBRANCH   1  17
BRANCH   1  33
ATOM     33  CB  GLN A   2       6.561  -0.435  20.868  0.00  0.00    +0.041 C 
BRANCH  33  34
ATOM     34  CG  GLN A   2       6.970   0.241  19.560  0.00  0.00    +0.098 C 
BRANCH  34  35
ATOM     35  CD  GLN A   2       5.880   0.247  18.509  0.00  0.00    +0.211 C 
ATOM     36  OE1 GLN A   2       5.881  -0.517  17.550  0.00  0.00    -0.276 OA
ATOM     37  NE2 GLN A   2       4.925   1.211  18.619  0.00  0.00    -0.329 N 
ATOM     38 HE21 GLN A   2       4.798   1.785  19.440  0.00  0.00    +0.145 HD
ATOM     39 HE22 GLN A   2       4.182   1.193  17.933  0.00  0.00    +0.145 HD
ENDBRANCH  34  35
ENDBRANCH  33  34
ENDBRANCH   1  33
TORSDOF 15
ENDMDL
MODEL 9
REMARK VINA RESULT:      -6.4      2.715      7.044
REMARK  Name = FQSA-mmff94.pdb
REMARK  16 active torsions:
REMARK  status: ('A' for Active; 'I' for Inactive)
REMARK    1  A    between atoms: _1  and  _2
REMARK    2  A    between atoms: _2  and  _3
REMARK    3  A    between atoms: _2  and  _5
REMARK    4  A    between atoms: _5  and  _6
REMARK    5  A    between atoms: _21  and  _22
REMARK    6  A    between atoms: _22  and  _23
REMARK    7  A    between atoms: _22  and  _25
REMARK    8  A    between atoms: _25  and  _26
REMARK    9  A    between atoms: _26  and  _27
REMARK   10  A    between atoms: _38  and  _39
REMARK   11  A    between atoms: _39  and  _40
REMARK   12  A    between atoms: _39  and  _42
REMARK   13  A    between atoms: _42  and  _43
REMARK   14  A    between atoms: _49  and  _50
REMARK   15  A    between atoms: _50  and  _51
REMARK   16  A    between atoms: _50  and  _53
REMARK                            x       y       z     vdW  Elec       q    Type
REMARK                         _______ _______ _______ _____ _____    ______ ____
ROOT
ATOM      1  CA  GLN A   2       8.161  -0.275  20.622  0.00  0.00    +0.159 C 
ENDROOT
BRANCH   1   3
ATOM      2  C   PHE A   1       7.694  -2.248  22.051  0.00  0.00    +0.231 C 
ATOM      3  N   GLN A   2       7.250  -1.256  21.212  0.00  0.00    -0.303 N 
ATOM      4  H   GLN A   2       6.276  -1.214  20.923  0.00  0.00    +0.149 HD
ATOM      5  O   PHE A   1       8.874  -2.350  22.383  0.00  0.00    -0.274 OA
BRANCH   2   6
ATOM      6  CA  PHE A   1       6.607  -3.227  22.544  0.00  0.00    +0.142 C 
BRANCH   6   7
ATOM      7  N   PHE A   1       5.592  -3.383  21.477  0.00  0.00    -0.320 NA
ATOM      8  H1  PHE A   1       4.763  -2.851  21.742  0.00  0.00    +0.119 HD
ATOM      9  H2  PHE A   1       5.942  -2.895  20.649  0.00  0.00    +0.119 HD
ENDBRANCH   6   7
BRANCH   6  10
ATOM     10  CB  PHE A   1       7.277  -4.557  22.927  0.00  0.00    +0.063 C 
BRANCH  10  11
ATOM     11  CG  PHE A   1       7.312  -4.824  24.413  0.00  0.00    -0.045 A 
ATOM     12  CD2 PHE A   1       8.495  -4.629  25.138  0.00  0.00    +0.004 A 
ATOM     13  CE2 PHE A   1       8.537  -4.882  26.510  0.00  0.00    +0.000 A 
ATOM     14  CZ  PHE A   1       7.398  -5.334  27.171  0.00  0.00    +0.000 A 
ATOM     15  CE1 PHE A   1       6.217  -5.538  26.460  0.00  0.00    +0.000 A 
ATOM     16  CD1 PHE A   1       6.173  -5.285  25.086  0.00  0.00    +0.004 A 
ENDBRANCH  10  11
ENDBRANCH   6  10
ENDBRANCH   2   6
ENDBRANCH   1   3
BRANCH   1  17
ATOM     17  C   GLN A   2       8.041   1.007  21.467  0.00  0.00    +0.234 C 
ATOM     18  O   GLN A   2       8.977   1.794  21.602  0.00  0.00    -0.274 OA
ATOM     19  N   SER A   3       6.831   1.189  22.085  0.00  0.00    -0.301 N 
ATOM     20  H   SER A   3       6.091   0.493  22.009  0.00  0.00    +0.150 HD
BRANCH  19  21
ATOM     21  CA  SER A   3       6.597   2.252  23.067  0.00  0.00    +0.184 C 
BRANCH  21  22
ATOM     22  C   SER A   3       6.947   1.668  24.448  0.00  0.00    +0.236 C 
ATOM     23  O   SER A   3       7.132   2.396  25.426  0.00  0.00    -0.274 OA
ATOM     24  N   ALA A   4       6.987   0.299  24.529  0.00  0.00    -0.305 N 
ATOM     25  H   ALA A   4       6.902  -0.279  23.696  0.00  0.00    +0.149 HD
BRANCH  24  26
ATOM     26  CA  ALA A   4       7.343  -0.394  25.759  0.00  0.00    +0.133 C 
ATOM     27  CB  ALA A   4       6.443  -1.592  26.023  0.00  0.00    +0.035 C 
BRANCH  26  28
ATOM     28  C   ALA A   4       8.785  -0.864  25.634  0.00  0.00    +0.245 C 
ATOM     29  O   ALA A   4       9.605  -0.338  24.882  0.00  0.00    -0.299 OA
ENDBRANCH  26  28
ENDBRANCH  24  26
ENDBRANCH  21  22
BRANCH  21  30
ATOM     30  CB  SER A   3       5.158   2.776  23.013  0.00  0.00    +0.187 C 
BRANCH  30  31
ATOM     31  OG  SER A   3       4.327   2.129  23.976  0.00  0.00    -0.393 OA
ATOM     32  H   SER A   3       4.704   1.243  24.121  0.00  0.00    +0.209 HD
ENDBRANCH  30  31
ENDBRANCH  21  30
ENDBRANCH  19  21
ENDBRANCH   1  17
BRANCH   1  33
ATOM     33  CB  GLN A   2       7.790  -0.020  19.153  0.00  0.00    +0.041 C 
BRANCH  33  34
ATOM     34  CG  GLN A   2       6.297  -0.164  18.858  0.00  0.00    +0.098 C 
BRANCH  34  35
ATOM     35  CD  GLN A   2       5.581   1.157  18.672  0.00  0.00    +0.211 C 
ATOM     36  OE1 GLN A   2       4.927   1.687  19.564  0.00  0.00    -0.276 OA
ATOM     37  NE2 GLN A   2       5.618   1.707  17.427  0.00  0.00    -0.329 N 
ATOM     38 HE21 GLN A   2       6.232   1.391  16.691  0.00  0.00    +0.145 HD
ATOM     39 HE22 GLN A   2       5.164   2.604  17.314  0.00  0.00    +0.145 HD
ENDBRANCH  34  35
ENDBRANCH  33  34
ENDBRANCH   1  33
TORSDOF 15
ENDMDL
MODEL 10
REMARK VINA RESULT:      -6.3      2.615      5.302
REMARK  Name = FQSA-mmff94.pdb
REMARK  16 active torsions:
REMARK  status: ('A' for Active; 'I' for Inactive)
REMARK    1  A    between atoms: _1  and  _2
REMARK    2  A    between atoms: _2  and  _3
REMARK    3  A    between atoms: _2  and  _5
REMARK    4  A    between atoms: _5  and  _6
REMARK    5  A    between atoms: _21  and  _22
REMARK    6  A    between atoms: _22  and  _23
REMARK    7  A    between atoms: _22  and  _25
REMARK    8  A    between atoms: _25  and  _26
REMARK    9  A    between atoms: _26  and  _27
REMARK   10  A    between atoms: _38  and  _39
REMARK   11  A    between atoms: _39  and  _40
REMARK   12  A    between atoms: _39  and  _42
REMARK   13  A    between atoms: _42  and  _43
REMARK   14  A    between atoms: _49  and  _50
REMARK   15  A    between atoms: _50  and  _51
REMARK   16  A    between atoms: _50  and  _53
REMARK                            x       y       z     vdW  Elec       q    Type
REMARK                         _______ _______ _______ _____ _____    ______ ____
ROOT
ATOM      1  CA  GLN A   2       6.287  -1.329  20.997  0.00  0.00    +0.159 C 
ENDROOT
BRANCH   1   3
ATOM      2  C   PHE A   1       8.176  -0.766  22.500  0.00  0.00    +0.231 C 
ATOM      3  N   GLN A   2       7.701  -1.052  21.245  0.00  0.00    -0.303 N 
ATOM      4  H   GLN A   2       8.314  -1.016  20.434  0.00  0.00    +0.149 HD
ATOM      5  O   PHE A   1       7.450  -0.759  23.494  0.00  0.00    -0.274 OA
BRANCH   2   6
ATOM      6  CA  PHE A   1       9.686  -0.451  22.576  0.00  0.00    +0.142 C 
BRANCH   6   7
ATOM      7  N   PHE A   1      10.438  -1.604  22.029  0.00  0.00    -0.320 NA
ATOM      8  H1  PHE A   1      10.688  -1.395  21.063  0.00  0.00    +0.119 HD
ATOM      9  H2  PHE A   1      11.338  -1.639  22.514  0.00  0.00    +0.119 HD
ENDBRANCH   6   7
BRANCH   6  10
ATOM     10  CB  PHE A   1       9.956   0.854  21.807  0.00  0.00    +0.063 C 
BRANCH  10  11
ATOM     11  CG  PHE A   1       9.323   2.076  22.427  0.00  0.00    -0.045 A 
ATOM     12  CD2 PHE A   1       8.134   2.599  21.904  0.00  0.00    +0.004 A 
ATOM     13  CE2 PHE A   1       7.547   3.734  22.466  0.00  0.00    +0.000 A 
ATOM     14  CZ  PHE A   1       8.146   4.359  23.557  0.00  0.00    +0.000 A 
ATOM     15  CE1 PHE A   1       9.333   3.854  24.083  0.00  0.00    +0.000 A 
ATOM     16  CD1 PHE A   1       9.921   2.717  23.521  0.00  0.00    +0.004 A 
ENDBRANCH  10  11
ENDBRANCH   6  10
ENDBRANCH   2   6
ENDBRANCH   1   3
BRANCH   1  17
ATOM     17  C   GLN A   2       6.092  -2.846  21.177  0.00  0.00    +0.234 C 
ATOM     18  O   GLN A   2       5.615  -3.556  20.293  0.00  0.00    -0.274 OA
ATOM     19  N   SER A   3       6.454  -3.341  22.403  0.00  0.00    -0.301 N 
ATOM     20  H   SER A   3       6.789  -2.725  23.142  0.00  0.00    +0.150 HD
BRANCH  19  21
ATOM     21  CA  SER A   3       6.172  -4.720  22.814  0.00  0.00    +0.184 C 
BRANCH  21  22
ATOM     22  C   SER A   3       6.463  -4.803  24.323  0.00  0.00    +0.236 C 
ATOM     23  O   SER A   3       6.049  -5.742  25.007  0.00  0.00    -0.274 OA
ATOM     24  N   ALA A   4       7.248  -3.804  24.840  0.00  0.00    -0.305 N 
ATOM     25  H   ALA A   4       7.519  -3.002  24.275  0.00  0.00    +0.149 HD
BRANCH  24  26
ATOM     26  CA  ALA A   4       7.573  -3.728  26.258  0.00  0.00    +0.133 C 
ATOM     27  CB  ALA A   4       8.872  -4.449  26.586  0.00  0.00    +0.035 C 
BRANCH  26  28
ATOM     28  C   ALA A   4       7.700  -2.260  26.635  0.00  0.00    +0.245 C 
ATOM     29  O   ALA A   4       8.716  -1.595  26.434  0.00  0.00    -0.299 OA
ENDBRANCH  26  28
ENDBRANCH  24  26
ENDBRANCH  21  22
BRANCH  21  30
ATOM     30  CB  SER A   3       6.993  -5.736  22.014  0.00  0.00    +0.187 C 
BRANCH  30  31
ATOM     31  OG  SER A   3       6.420  -7.041  22.077  0.00  0.00    -0.393 OA
ATOM     32  H   SER A   3       6.272  -7.326  21.157  0.00  0.00    +0.209 HD
ENDBRANCH  30  31
ENDBRANCH  21  30
ENDBRANCH  19  21
ENDBRANCH   1  17
BRANCH   1  33
ATOM     33  CB  GLN A   2       5.895  -0.874  19.582  0.00  0.00    +0.041 C 
BRANCH  33  34
ATOM     34  CG  GLN A   2       6.713   0.308  19.064  0.00  0.00    +0.098 C 
BRANCH  34  35
ATOM     35  CD  GLN A   2       5.945   1.218  18.128  0.00  0.00    +0.211 C 
ATOM     36  OE1 GLN A   2       6.323   1.467  16.989  0.00  0.00    -0.276 OA
ATOM     37  NE2 GLN A   2       4.842   1.833  18.636  0.00  0.00    -0.329 N 
ATOM     38 HE21 GLN A   2       4.412   1.581  19.514  0.00  0.00    +0.145 HD
ATOM     39 HE22 GLN A   2       4.315   2.417  18.000  0.00  0.00    +0.145 HD
ENDBRANCH  34  35
ENDBRANCH  33  34
ENDBRANCH   1  33
TORSDOF 15
ENDMDL
MODEL 11
REMARK VINA RESULT:      -6.3      2.423      6.402
REMARK  Name = FQSA-mmff94.pdb
REMARK  16 active torsions:
REMARK  status: ('A' for Active; 'I' for Inactive)
REMARK    1  A    between atoms: _1  and  _2
REMARK    2  A    between atoms: _2  and  _3
REMARK    3  A    between atoms: _2  and  _5
REMARK    4  A    between atoms: _5  and  _6
REMARK    5  A    between atoms: _21  and  _22
REMARK    6  A    between atoms: _22  and  _23
REMARK    7  A    between atoms: _22  and  _25
REMARK    8  A    between atoms: _25  and  _26
REMARK    9  A    between atoms: _26  and  _27
REMARK   10  A    between atoms: _38  and  _39
REMARK   11  A    between atoms: _39  and  _40
REMARK   12  A    between atoms: _39  and  _42
REMARK   13  A    between atoms: _42  and  _43
REMARK   14  A    between atoms: _49  and  _50
REMARK   15  A    between atoms: _50  and  _51
REMARK   16  A    between atoms: _50  and  _53
REMARK                            x       y       z     vdW  Elec       q    Type
REMARK                         _______ _______ _______ _____ _____    ______ ____
ROOT
ATOM      1  CA  GLN A   2       7.239   1.855  22.620  0.00  0.00    +0.159 C 
ENDROOT
BRANCH   1   3
ATOM      2  C   PHE A   1       7.760   0.110  24.303  0.00  0.00    +0.231 C 
ATOM      3  N   GLN A   2       7.996   0.692  23.083  0.00  0.00    -0.303 N 
ATOM      4  H   GLN A   2       8.754   0.367  22.488  0.00  0.00    +0.149 HD
ATOM      5  O   PHE A   1       6.879   0.509  25.063  0.00  0.00    -0.274 OA
BRANCH   2   6
ATOM      6  CA  PHE A   1       8.682  -1.079  24.654  0.00  0.00    +0.142 C 
BRANCH   6   7
ATOM      7  N   PHE A   1      10.082  -0.690  24.369  0.00  0.00    -0.320 NA
ATOM      8  H1  PHE A   1      10.670  -1.519  24.462  0.00  0.00    +0.119 HD
ATOM      9  H2  PHE A   1      10.139  -0.460  23.374  0.00  0.00    +0.119 HD
ENDBRANCH   6   7
BRANCH   6  10
ATOM     10  CB  PHE A   1       8.458  -1.458  26.128  0.00  0.00    +0.063 C 
BRANCH  10  11
ATOM     11  CG  PHE A   1       7.848  -2.826  26.325  0.00  0.00    -0.045 A 
ATOM     12  CD2 PHE A   1       8.665  -3.962  26.381  0.00  0.00    +0.004 A 
ATOM     13  CE2 PHE A   1       8.108  -5.230  26.554  0.00  0.00    +0.000 A 
ATOM     14  CZ  PHE A   1       6.728  -5.375  26.670  0.00  0.00    +0.000 A 
ATOM     15  CE1 PHE A   1       5.904  -4.254  26.609  0.00  0.00    +0.000 A 
ATOM     16  CD1 PHE A   1       6.460  -2.983  26.437  0.00  0.00    +0.004 A 
ENDBRANCH  10  11
ENDBRANCH   6  10
ENDBRANCH   2   6
ENDBRANCH   1   3
BRANCH   1  17
ATOM     17  C   GLN A   2       6.463   1.411  21.367  0.00  0.00    +0.234 C 
ATOM     18  O   GLN A   2       5.666   2.152  20.791  0.00  0.00    -0.274 OA
ATOM     19  N   SER A   3       6.694   0.122  20.961  0.00  0.00    -0.301 N 
ATOM     20  H   SER A   3       7.311  -0.493  21.489  0.00  0.00    +0.150 HD
BRANCH  19  21
ATOM     21  CA  SER A   3       5.913  -0.527  19.904  0.00  0.00    +0.184 C 
BRANCH  21  22
ATOM     22  C   SER A   3       5.819  -2.018  20.270  0.00  0.00    +0.236 C 
ATOM     23  O   SER A   3       5.503  -2.868  19.435  0.00  0.00    -0.274 OA
ATOM     24  N   ALA A   4       6.156  -2.343  21.560  0.00  0.00    -0.305 N 
ATOM     25  H   ALA A   4       6.344  -1.620  22.252  0.00  0.00    +0.149 HD
BRANCH  24  26
ATOM     26  CA  ALA A   4       6.076  -3.707  22.063  0.00  0.00    +0.133 C 
ATOM     27  CB  ALA A   4       7.327  -4.110  22.829  0.00  0.00    +0.035 C 
BRANCH  26  28
ATOM     28  C   ALA A   4       4.868  -3.800  22.983  0.00  0.00    +0.245 C 
ATOM     29  O   ALA A   4       3.939  -4.587  22.804  0.00  0.00    -0.299 OA
ENDBRANCH  26  28
ENDBRANCH  24  26
ENDBRANCH  21  22
BRANCH  21  30
ATOM     30  CB  SER A   3       6.534  -0.314  18.520  0.00  0.00    +0.187 C 
BRANCH  30  31
ATOM     31  OG  SER A   3       5.594  -0.568  17.477  0.00  0.00    -0.393 OA
ATOM     32  H   SER A   3       4.830   0.013  17.641  0.00  0.00    +0.209 HD
ENDBRANCH  30  31
ENDBRANCH  21  30
ENDBRANCH  19  21
ENDBRANCH   1  17
BRANCH   1  33
ATOM     33  CB  GLN A   2       8.192   3.021  22.310  0.00  0.00    +0.041 C 
BRANCH  33  34
ATOM     34  CG  GLN A   2       8.995   3.501  23.518  0.00  0.00    +0.098 C 
BRANCH  34  35
ATOM     35  CD  GLN A   2      10.449   3.081  23.490  0.00  0.00    +0.211 C 
ATOM     36  OE1 GLN A   2      10.828   1.979  23.872  0.00  0.00    -0.276 OA
ATOM     37  NE2 GLN A   2      11.354   4.020  23.100  0.00  0.00    -0.329 N 
ATOM     38 HE21 GLN A   2      11.103   4.894  22.661  0.00  0.00    +0.145 HD
ATOM     39 HE22 GLN A   2      12.321   3.727  23.054  0.00  0.00    +0.145 HD
ENDBRANCH  34  35
ENDBRANCH  33  34
ENDBRANCH   1  33
TORSDOF 15
ENDMDL
MODEL 12
REMARK VINA RESULT:      -6.3      2.313      7.113
REMARK  Name = FQSA-mmff94.pdb
REMARK  16 active torsions:
REMARK  status: ('A' for Active; 'I' for Inactive)
REMARK    1  A    between atoms: _1  and  _2
REMARK    2  A    between atoms: _2  and  _3
REMARK    3  A    between atoms: _2  and  _5
REMARK    4  A    between atoms: _5  and  _6
REMARK    5  A    between atoms: _21  and  _22
REMARK    6  A    between atoms: _22  and  _23
REMARK    7  A    between atoms: _22  and  _25
REMARK    8  A    between atoms: _25  and  _26
REMARK    9  A    between atoms: _26  and  _27
REMARK   10  A    between atoms: _38  and  _39
REMARK   11  A    between atoms: _39  and  _40
REMARK   12  A    between atoms: _39  and  _42
REMARK   13  A    between atoms: _42  and  _43
REMARK   14  A    between atoms: _49  and  _50
REMARK   15  A    between atoms: _50  and  _51
REMARK   16  A    between atoms: _50  and  _53
REMARK                            x       y       z     vdW  Elec       q    Type
REMARK                         _______ _______ _______ _____ _____    ______ ____
ROOT
ATOM      1  CA  GLN A   2       8.104  -3.366  22.794  0.00  0.00    +0.159 C 
ENDROOT
BRANCH   1   3
ATOM      2  C   PHE A   1       8.286  -4.953  24.691  0.00  0.00    +0.231 C 
ATOM      3  N   GLN A   2       7.916  -3.726  24.199  0.00  0.00    -0.303 N 
ATOM      4  H   GLN A   2       7.438  -3.050  24.789  0.00  0.00    +0.149 HD
ATOM      5  O   PHE A   1       8.827  -5.807  23.989  0.00  0.00    -0.274 OA
BRANCH   2   6
ATOM      6  CA  PHE A   1       7.972  -5.184  26.185  0.00  0.00    +0.142 C 
BRANCH   6   7
ATOM      7  N   PHE A   1       9.143  -4.757  26.985  0.00  0.00    -0.320 NA
ATOM      8  H1  PHE A   1       9.005  -5.069  27.947  0.00  0.00    +0.119 HD
ATOM      9  H2  PHE A   1       9.947  -5.301  26.664  0.00  0.00    +0.119 HD
ENDBRANCH   6   7
BRANCH   6  10
ATOM     10  CB  PHE A   1       6.691  -4.412  26.545  0.00  0.00    +0.063 C 
BRANCH  10  11
ATOM     11  CG  PHE A   1       5.421  -5.069  26.059  0.00  0.00    -0.045 A 
ATOM     12  CD2 PHE A   1       5.290  -6.463  26.087  0.00  0.00    +0.004 A 
ATOM     13  CE2 PHE A   1       4.123  -7.077  25.631  0.00  0.00    +0.000 A 
ATOM     14  CZ  PHE A   1       3.074  -6.303  25.142  0.00  0.00    +0.000 A 
ATOM     15  CE1 PHE A   1       3.193  -4.915  25.103  0.00  0.00    +0.000 A 
ATOM     16  CD1 PHE A   1       4.362  -4.299  25.559  0.00  0.00    +0.004 A 
ENDBRANCH  10  11
ENDBRANCH   6  10
ENDBRANCH   2   6
ENDBRANCH   1   3
BRANCH   1  17
ATOM     17  C   GLN A   2       9.146  -2.233  22.761  0.00  0.00    +0.234 C 
ATOM     18  O   GLN A   2      10.346  -2.438  22.943  0.00  0.00    -0.274 OA
ATOM     19  N   SER A   3       8.639  -0.977  22.549  0.00  0.00    -0.301 N 
ATOM     20  H   SER A   3       7.635  -0.822  22.462  0.00  0.00    +0.150 HD
BRANCH  19  21
ATOM     21  CA  SER A   3       9.454   0.236  22.666  0.00  0.00    +0.184 C 
BRANCH  21  22
ATOM     22  C   SER A   3       9.259   0.768  24.097  0.00  0.00    +0.236 C 
ATOM     23  O   SER A   3       9.971   1.666  24.551  0.00  0.00    -0.274 OA
ATOM     24  N   ALA A   4       8.219   0.221  24.805  0.00  0.00    -0.305 N 
ATOM     25  H   ALA A   4       7.691  -0.567  24.438  0.00  0.00    +0.149 HD
BRANCH  24  26
ATOM     26  CA  ALA A   4       7.939   0.596  26.184  0.00  0.00    +0.133 C 
ATOM     27  CB  ALA A   4       6.477   0.966  26.391  0.00  0.00    +0.035 C 
BRANCH  26  28
ATOM     28  C   ALA A   4       8.292  -0.585  27.075  0.00  0.00    +0.245 C 
ATOM     29  O   ALA A   4       8.666  -1.673  26.640  0.00  0.00    -0.299 OA
ENDBRANCH  26  28
ENDBRANCH  24  26
ENDBRANCH  21  22
BRANCH  21  30
ATOM     30  CB  SER A   3       9.081   1.280  21.609  0.00  0.00    +0.187 C 
BRANCH  30  31
ATOM     31  OG  SER A   3      10.056   2.320  21.531  0.00  0.00    -0.393 OA
ATOM     32  H   SER A   3      10.071   2.620  20.604  0.00  0.00    +0.209 HD
ENDBRANCH  30  31
ENDBRANCH  21  30
ENDBRANCH  19  21
ENDBRANCH   1  17
BRANCH   1  33
ATOM     33  CB  GLN A   2       6.769  -2.923  22.175  0.00  0.00    +0.041 C 
BRANCH  33  34
ATOM     34  CG  GLN A   2       5.637  -3.932  22.358  0.00  0.00    +0.098 C 
BRANCH  34  35
ATOM     35  CD  GLN A   2       5.893  -5.266  21.688  0.00  0.00    +0.211 C 
ATOM     36  OE1 GLN A   2       6.010  -5.384  20.473  0.00  0.00    -0.276 OA
ATOM     37  NE2 GLN A   2       5.903  -6.366  22.489  0.00  0.00    -0.329 N 
ATOM     38 HE21 GLN A   2       5.936  -6.326  23.498  0.00  0.00    +0.145 HD
ATOM     39 HE22 GLN A   2       6.104  -7.251  22.043  0.00  0.00    +0.145 HD
ENDBRANCH  34  35
ENDBRANCH  33  34
ENDBRANCH   1  33
TORSDOF 15
ENDMDL
MODEL 13
REMARK VINA RESULT:      -6.3      2.656      5.863
REMARK  Name = FQSA-mmff94.pdb
REMARK  16 active torsions:
REMARK  status: ('A' for Active; 'I' for Inactive)
REMARK    1  A    between atoms: _1  and  _2
REMARK    2  A    between atoms: _2  and  _3
REMARK    3  A    between atoms: _2  and  _5
REMARK    4  A    between atoms: _5  and  _6
REMARK    5  A    between atoms: _21  and  _22
REMARK    6  A    between atoms: _22  and  _23
REMARK    7  A    between atoms: _22  and  _25
REMARK    8  A    between atoms: _25  and  _26
REMARK    9  A    between atoms: _26  and  _27
REMARK   10  A    between atoms: _38  and  _39
REMARK   11  A    between atoms: _39  and  _40
REMARK   12  A    between atoms: _39  and  _42
REMARK   13  A    between atoms: _42  and  _43
REMARK   14  A    between atoms: _49  and  _50
REMARK   15  A    between atoms: _50  and  _51
REMARK   16  A    between atoms: _50  and  _53
REMARK                            x       y       z     vdW  Elec       q    Type
REMARK                         _______ _______ _______ _____ _____    ______ ____
ROOT
ATOM      1  CA  GLN A   2       7.080  -0.673  21.345  0.00  0.00    +0.159 C 
ENDROOT
BRANCH   1   3
ATOM      2  C   PHE A   1       8.606   0.025  23.171  0.00  0.00    +0.231 C 
ATOM      3  N   GLN A   2       8.175  -0.927  22.281  0.00  0.00    -0.303 N 
ATOM      4  H   GLN A   2       8.652  -1.821  22.202  0.00  0.00    +0.149 HD
ATOM      5  O   PHE A   1       8.076   1.132  23.258  0.00  0.00    -0.274 OA
BRANCH   2   6
ATOM      6  CA  PHE A   1       9.804  -0.392  24.052  0.00  0.00    +0.142 C 
BRANCH   6   7
ATOM      7  N   PHE A   1      10.748   0.746  24.135  0.00  0.00    -0.320 NA
ATOM      8  H1  PHE A   1      11.092   0.808  25.093  0.00  0.00    +0.119 HD
ATOM      9  H2  PHE A   1      11.579   0.494  23.593  0.00  0.00    +0.119 HD
ENDBRANCH   6   7
BRANCH   6  10
ATOM     10  CB  PHE A   1       9.275  -0.828  25.429  0.00  0.00    +0.063 C 
BRANCH  10  11
ATOM     11  CG  PHE A   1       8.867  -2.281  25.499  0.00  0.00    -0.045 A 
ATOM     12  CD2 PHE A   1       9.409  -3.211  24.603  0.00  0.00    +0.004 A 
ATOM     13  CE2 PHE A   1       9.029  -4.553  24.656  0.00  0.00    +0.000 A 
ATOM     14  CZ  PHE A   1       8.102  -4.979  25.603  0.00  0.00    +0.000 A 
ATOM     15  CE1 PHE A   1       7.550  -4.061  26.496  0.00  0.00    +0.000 A 
ATOM     16  CD1 PHE A   1       7.929  -2.718  26.445  0.00  0.00    +0.004 A 
ENDBRANCH  10  11
ENDBRANCH   6  10
ENDBRANCH   2   6
ENDBRANCH   1   3
BRANCH   1  17
ATOM     17  C   GLN A   2       6.337  -2.009  21.157  0.00  0.00    +0.234 C 
ATOM     18  O   GLN A   2       5.580  -2.211  20.208  0.00  0.00    -0.274 OA
ATOM     19  N   SER A   3       6.552  -2.941  22.138  0.00  0.00    -0.301 N 
ATOM     20  H   SER A   3       7.135  -2.730  22.947  0.00  0.00    +0.150 HD
BRANCH  19  21
ATOM     21  CA  SER A   3       5.794  -4.193  22.220  0.00  0.00    +0.184 C 
BRANCH  21  22
ATOM     22  C   SER A   3       5.123  -4.219  23.605  0.00  0.00    +0.236 C 
ATOM     23  O   SER A   3       4.839  -3.179  24.202  0.00  0.00    -0.274 OA
ATOM     24  N   ALA A   4       4.819  -5.462  24.101  0.00  0.00    -0.305 N 
ATOM     25  H   ALA A   4       5.126  -6.307  23.626  0.00  0.00    +0.149 HD
BRANCH  24  26
ATOM     26  CA  ALA A   4       4.219  -5.646  25.416  0.00  0.00    +0.133 C 
ATOM     27  CB  ALA A   4       2.709  -5.807  25.339  0.00  0.00    +0.035 C 
BRANCH  26  28
ATOM     28  C   ALA A   4       4.830  -6.891  26.042  0.00  0.00    +0.245 C 
ATOM     29  O   ALA A   4       5.397  -6.891  27.134  0.00  0.00    -0.299 OA
ENDBRANCH  26  28
ENDBRANCH  24  26
ENDBRANCH  21  22
BRANCH  21  30
ATOM     30  CB  SER A   3       6.684  -5.419  21.989  0.00  0.00    +0.187 C 
BRANCH  30  31
ATOM     31  OG  SER A   3       5.912  -6.578  21.679  0.00  0.00    -0.393 OA
ATOM     32  H   SER A   3       6.343  -7.004  20.916  0.00  0.00    +0.209 HD
ENDBRANCH  30  31
ENDBRANCH  21  30
ENDBRANCH  19  21
ENDBRANCH   1  17
BRANCH   1  33
ATOM     33  CB  GLN A   2       7.631  -0.141  20.012  0.00  0.00    +0.041 C 
BRANCH  33  34
ATOM     34  CG  GLN A   2       6.791   0.979  19.400  0.00  0.00    +0.098 C 
BRANCH  34  35
ATOM     35  CD  GLN A   2       6.250   0.654  18.024  0.00  0.00    +0.211 C 
ATOM     36  OE1 GLN A   2       6.330   1.432  17.080  0.00  0.00    -0.276 OA
ATOM     37  NE2 GLN A   2       5.580  -0.523  17.889  0.00  0.00    -0.329 N 
ATOM     38 HE21 GLN A   2       5.585  -1.256  18.583  0.00  0.00    +0.145 HD
ATOM     39 HE22 GLN A   2       5.246  -0.751  16.961  0.00  0.00    +0.145 HD
ENDBRANCH  34  35
ENDBRANCH  33  34
ENDBRANCH   1  33
TORSDOF 15
ENDMDL
MODEL 14
REMARK VINA RESULT:      -6.3      2.526      6.675
REMARK  Name = FQSA-mmff94.pdb
REMARK  16 active torsions:
REMARK  status: ('A' for Active; 'I' for Inactive)
REMARK    1  A    between atoms: _1  and  _2
REMARK    2  A    between atoms: _2  and  _3
REMARK    3  A    between atoms: _2  and  _5
REMARK    4  A    between atoms: _5  and  _6
REMARK    5  A    between atoms: _21  and  _22
REMARK    6  A    between atoms: _22  and  _23
REMARK    7  A    between atoms: _22  and  _25
REMARK    8  A    between atoms: _25  and  _26
REMARK    9  A    between atoms: _26  and  _27
REMARK   10  A    between atoms: _38  and  _39
REMARK   11  A    between atoms: _39  and  _40
REMARK   12  A    between atoms: _39  and  _42
REMARK   13  A    between atoms: _42  and  _43
REMARK   14  A    between atoms: _49  and  _50
REMARK   15  A    between atoms: _50  and  _51
REMARK   16  A    between atoms: _50  and  _53
REMARK                            x       y       z     vdW  Elec       q    Type
REMARK                         _______ _______ _______ _____ _____    ______ ____
ROOT
ATOM      1  CA  GLN A   2       8.828   0.331  21.186  0.00  0.00    +0.159 C 
ENDROOT
BRANCH   1   3
ATOM      2  C   PHE A   1       9.326  -1.745  22.449  0.00  0.00    +0.231 C 
ATOM      3  N   GLN A   2       8.436  -0.775  22.059  0.00  0.00    -0.303 N 
ATOM      4  H   GLN A   2       7.454  -0.834  22.317  0.00  0.00    +0.149 HD
ATOM      5  O   PHE A   1      10.510  -1.723  22.116  0.00  0.00    -0.274 OA
BRANCH   2   6
ATOM      6  CA  PHE A   1       8.733  -2.865  23.331  0.00  0.00    +0.142 C 
BRANCH   6   7
ATOM      7  N   PHE A   1       9.562  -2.993  24.552  0.00  0.00    -0.320 NA
ATOM      8  H1  PHE A   1      10.333  -2.328  24.487  0.00  0.00    +0.119 HD
ATOM      9  H2  PHE A   1       9.005  -2.645  25.337  0.00  0.00    +0.119 HD
ENDBRANCH   6   7
BRANCH   6  10
ATOM     10  CB  PHE A   1       7.266  -2.524  23.641  0.00  0.00    +0.063 C 
BRANCH  10  11
ATOM     11  CG  PHE A   1       6.300  -3.650  23.356  0.00  0.00    -0.045 A 
ATOM     12  CD2 PHE A   1       4.943  -3.514  23.675  0.00  0.00    +0.004 A 
ATOM     13  CE2 PHE A   1       4.045  -4.553  23.423  0.00  0.00    +0.000 A 
ATOM     14  CZ  PHE A   1       4.496  -5.739  22.851  0.00  0.00    +0.000 A 
ATOM     15  CE1 PHE A   1       5.845  -5.890  22.534  0.00  0.00    +0.000 A 
ATOM     16  CD1 PHE A   1       6.744  -4.850  22.786  0.00  0.00    +0.004 A 
ENDBRANCH  10  11
ENDBRANCH   6  10
ENDBRANCH   2   6
ENDBRANCH   1   3
BRANCH   1  17
ATOM     17  C   GLN A   2       9.300   1.475  22.103  0.00  0.00    +0.234 C 
ATOM     18  O   GLN A   2      10.414   1.987  21.993  0.00  0.00    -0.274 OA
ATOM     19  N   SER A   3       8.407   1.857  23.069  0.00  0.00    -0.301 N 
ATOM     20  H   SER A   3       7.514   1.377  23.181  0.00  0.00    +0.150 HD
BRANCH  19  21
ATOM     21  CA  SER A   3       8.752   2.798  24.138  0.00  0.00    +0.184 C 
BRANCH  21  22
ATOM     22  C   SER A   3       7.974   2.356  25.391  0.00  0.00    +0.236 C 
ATOM     23  O   SER A   3       7.620   3.168  26.248  0.00  0.00    -0.274 OA
ATOM     24  N   ALA A   4       7.660   1.022  25.463  0.00  0.00    -0.305 N 
ATOM     25  H   ALA A   4       8.023   0.359  24.782  0.00  0.00    +0.149 HD
BRANCH  24  26
ATOM     26  CA  ALA A   4       6.963   0.451  26.608  0.00  0.00    +0.133 C 
ATOM     27  CB  ALA A   4       5.581  -0.064  26.237  0.00  0.00    +0.035 C 
BRANCH  26  28
ATOM     28  C   ALA A   4       7.804  -0.697  27.146  0.00  0.00    +0.245 C 
ATOM     29  O   ALA A   4       8.900  -1.008  26.683  0.00  0.00    -0.299 OA
ENDBRANCH  26  28
ENDBRANCH  24  26
ENDBRANCH  21  22
BRANCH  21  30
ATOM     30  CB  SER A   3       8.439   4.247  23.750  0.00  0.00    +0.187 C 
BRANCH  30  31
ATOM     31  OG  SER A   3       9.545   4.866  23.094  0.00  0.00    -0.393 OA
ATOM     32  H   SER A   3      10.242   4.974  23.765  0.00  0.00    +0.209 HD
ENDBRANCH  30  31
ENDBRANCH  21  30
ENDBRANCH  19  21
ENDBRANCH   1  17
BRANCH   1  33
ATOM     33  CB  GLN A   2       7.642   0.763  20.309  0.00  0.00    +0.041 C 
BRANCH  33  34
ATOM     34  CG  GLN A   2       7.601   0.078  18.944  0.00  0.00    +0.098 C 
BRANCH  34  35
ATOM     35  CD  GLN A   2       6.237  -0.463  18.573  0.00  0.00    +0.211 C 
ATOM     36  OE1 GLN A   2       5.778  -0.382  17.438  0.00  0.00    -0.276 OA
ATOM     37  NE2 GLN A   2       5.482  -0.975  19.584  0.00  0.00    -0.329 N 
ATOM     38 HE21 GLN A   2       5.842  -1.181  20.504  0.00  0.00    +0.145 HD
ATOM     39 HE22 GLN A   2       4.584  -1.362  19.328  0.00  0.00    +0.145 HD
ENDBRANCH  34  35
ENDBRANCH  33  34
ENDBRANCH   1  33
TORSDOF 15
ENDMDL
MODEL 15
REMARK VINA RESULT:      -6.3      1.905      2.603
REMARK  Name = FQSA-mmff94.pdb
REMARK  16 active torsions:
REMARK  status: ('A' for Active; 'I' for Inactive)
REMARK    1  A    between atoms: _1  and  _2
REMARK    2  A    between atoms: _2  and  _3
REMARK    3  A    between atoms: _2  and  _5
REMARK    4  A    between atoms: _5  and  _6
REMARK    5  A    between atoms: _21  and  _22
REMARK    6  A    between atoms: _22  and  _23
REMARK    7  A    between atoms: _22  and  _25
REMARK    8  A    between atoms: _25  and  _26
REMARK    9  A    between atoms: _26  and  _27
REMARK   10  A    between atoms: _38  and  _39
REMARK   11  A    between atoms: _39  and  _40
REMARK   12  A    between atoms: _39  and  _42
REMARK   13  A    between atoms: _42  and  _43
REMARK   14  A    between atoms: _49  and  _50
REMARK   15  A    between atoms: _50  and  _51
REMARK   16  A    between atoms: _50  and  _53
REMARK                            x       y       z     vdW  Elec       q    Type
REMARK                         _______ _______ _______ _____ _____    ______ ____
ROOT
ATOM      1  CA  GLN A   2       7.752  -1.681  25.609  0.00  0.00    +0.159 C 
ENDROOT
BRANCH   1   3
ATOM      2  C   PHE A   1       9.467  -0.352  24.409  0.00  0.00    +0.231 C 
ATOM      3  N   GLN A   2       8.793  -1.533  24.593  0.00  0.00    -0.303 N 
ATOM      4  H   GLN A   2       8.955  -2.327  23.978  0.00  0.00    +0.149 HD
ATOM      5  O   PHE A   1       9.261   0.639  25.109  0.00  0.00    -0.274 OA
BRANCH   2   6
ATOM      6  CA  PHE A   1      10.500  -0.355  23.261  0.00  0.00    +0.142 C 
BRANCH   6   7
ATOM      7  N   PHE A   1      10.358  -1.619  22.502  0.00  0.00    -0.320 NA
ATOM      8  H1  PHE A   1      11.132  -2.234  22.755  0.00  0.00    +0.119 HD
ATOM      9  H2  PHE A   1       9.532  -2.103  22.865  0.00  0.00    +0.119 HD
ENDBRANCH   6   7
BRANCH   6  10
ATOM     10  CB  PHE A   1      10.271   0.891  22.388  0.00  0.00    +0.063 C 
BRANCH  10  11
ATOM     11  CG  PHE A   1       8.955   0.889  21.647  0.00  0.00    -0.045 A 
ATOM     12  CD2 PHE A   1       8.727  -0.029  20.614  0.00  0.00    +0.004 A 
ATOM     13  CE2 PHE A   1       7.517  -0.031  19.918  0.00  0.00    +0.000 A 
ATOM     14  CZ  PHE A   1       6.523   0.887  20.247  0.00  0.00    +0.000 A 
ATOM     15  CE1 PHE A   1       6.739   1.810  21.268  0.00  0.00    +0.000 A 
ATOM     16  CD1 PHE A   1       7.950   1.812  21.966  0.00  0.00    +0.004 A 
ENDBRANCH  10  11
ENDBRANCH   6  10
ENDBRANCH   2   6
ENDBRANCH   1   3
BRANCH   1  17
ATOM     17  C   GLN A   2       7.938  -3.076  26.236  0.00  0.00    +0.234 C 
ATOM     18  O   GLN A   2       9.044  -3.510  26.554  0.00  0.00    -0.274 OA
ATOM     19  N   SER A   3       6.790  -3.810  26.380  0.00  0.00    -0.301 N 
ATOM     20  H   SER A   3       5.892  -3.454  26.053  0.00  0.00    +0.150 HD
BRANCH  19  21
ATOM     21  CA  SER A   3       6.797  -5.218  26.787  0.00  0.00    +0.184 C 
BRANCH  21  22
ATOM     22  C   SER A   3       5.916  -5.978  25.780  0.00  0.00    +0.236 C 
ATOM     23  O   SER A   3       5.187  -6.906  26.135  0.00  0.00    -0.274 OA
ATOM     24  N   ALA A   4       5.956  -5.525  24.485  0.00  0.00    -0.305 N 
ATOM     25  H   ALA A   4       6.617  -4.805  24.200  0.00  0.00    +0.149 HD
BRANCH  24  26
ATOM     26  CA  ALA A   4       5.208  -6.170  23.415  0.00  0.00    +0.133 C 
ATOM     27  CB  ALA A   4       3.901  -5.450  23.115  0.00  0.00    +0.035 C 
BRANCH  26  28
ATOM     28  C   ALA A   4       6.079  -6.175  22.168  0.00  0.00    +0.245 C 
ATOM     29  O   ALA A   4       5.765  -5.613  21.120  0.00  0.00    -0.299 OA
ENDBRANCH  26  28
ENDBRANCH  24  26
ENDBRANCH  21  22
BRANCH  21  30
ATOM     30  CB  SER A   3       6.309  -5.401  28.228  0.00  0.00    +0.187 C 
BRANCH  30  31
ATOM     31  OG  SER A   3       6.638  -6.694  28.734  0.00  0.00    -0.393 OA
ATOM     32  H   SER A   3       5.821  -7.058  29.120  0.00  0.00    +0.209 HD
ENDBRANCH  30  31
ENDBRANCH  21  30
ENDBRANCH  19  21
ENDBRANCH   1  17
BRANCH   1  33
ATOM     33  CB  GLN A   2       6.361  -1.529  24.973  0.00  0.00    +0.041 C 
BRANCH  33  34
ATOM     34  CG  GLN A   2       6.396  -1.210  23.479  0.00  0.00    +0.098 C 
BRANCH  34  35
ATOM     35  CD  GLN A   2       6.545  -2.431  22.597  0.00  0.00    +0.211 C 
ATOM     36  OE1 GLN A   2       7.494  -3.202  22.688  0.00  0.00    -0.276 OA
ATOM     37  NE2 GLN A   2       5.614  -2.600  21.619  0.00  0.00    -0.329 N 
ATOM     38 HE21 GLN A   2       4.751  -2.079  21.568  0.00  0.00    +0.145 HD
ATOM     39 HE22 GLN A   2       5.699  -3.433  21.050  0.00  0.00    +0.145 HD
ENDBRANCH  34  35
ENDBRANCH  33  34
ENDBRANCH   1  33
TORSDOF 15
ENDMDL
MODEL 16
REMARK VINA RESULT:      -6.3      2.411      4.875
REMARK  Name = FQSA-mmff94.pdb
REMARK  16 active torsions:
REMARK  status: ('A' for Active; 'I' for Inactive)
REMARK    1  A    between atoms: _1  and  _2
REMARK    2  A    between atoms: _2  and  _3
REMARK    3  A    between atoms: _2  and  _5
REMARK    4  A    between atoms: _5  and  _6
REMARK    5  A    between atoms: _21  and  _22
REMARK    6  A    between atoms: _22  and  _23
REMARK    7  A    between atoms: _22  and  _25
REMARK    8  A    between atoms: _25  and  _26
REMARK    9  A    between atoms: _26  and  _27
REMARK   10  A    between atoms: _38  and  _39
REMARK   11  A    between atoms: _39  and  _40
REMARK   12  A    between atoms: _39  and  _42
REMARK   13  A    between atoms: _42  and  _43
REMARK   14  A    between atoms: _49  and  _50
REMARK   15  A    between atoms: _50  and  _51
REMARK   16  A    between atoms: _50  and  _53
REMARK                            x       y       z     vdW  Elec       q    Type
REMARK                         _______ _______ _______ _____ _____    ______ ____
ROOT
ATOM      1  CA  GLN A   2       8.108  -4.338  26.409  0.00  0.00    +0.159 C 
ENDROOT
BRANCH   1   3
ATOM      2  C   PHE A   1       7.920  -1.904  25.975  0.00  0.00    +0.231 C 
ATOM      3  N   GLN A   2       8.571  -2.959  26.563  0.00  0.00    -0.303 N 
ATOM      4  H   GLN A   2       9.439  -2.818  27.073  0.00  0.00    +0.149 HD
ATOM      5  O   PHE A   1       6.892  -2.050  25.314  0.00  0.00    -0.274 OA
BRANCH   2   6
ATOM      6  CA  PHE A   1       8.571  -0.522  26.199  0.00  0.00    +0.142 C 
BRANCH   6   7
ATOM      7  N   PHE A   1       9.222  -0.516  27.529  0.00  0.00    -0.320 NA
ATOM      8  H1  PHE A   1       9.411  -1.482  27.798  0.00  0.00    +0.119 HD
ATOM      9  H2  PHE A   1      10.153  -0.108  27.412  0.00  0.00    +0.119 HD
ENDBRANCH   6   7
BRANCH   6  10
ATOM     10  CB  PHE A   1       9.560  -0.250  25.052  0.00  0.00    +0.063 C 
BRANCH  10  11
ATOM     11  CG  PHE A   1       9.608   1.193  24.610  0.00  0.00    -0.045 A 
ATOM     12  CD2 PHE A   1      10.692   1.667  23.860  0.00  0.00    +0.004 A 
ATOM     13  CE2 PHE A   1      10.748   3.001  23.455  0.00  0.00    +0.000 A 
ATOM     14  CZ  PHE A   1       9.720   3.876  23.797  0.00  0.00    +0.000 A 
ATOM     15  CE1 PHE A   1       8.639   3.419  24.548  0.00  0.00    +0.000 A 
ATOM     16  CD1 PHE A   1       8.582   2.083  24.954  0.00  0.00    +0.004 A 
ENDBRANCH  10  11
ENDBRANCH   6  10
ENDBRANCH   2   6
ENDBRANCH   1   3
BRANCH   1  17
ATOM     17  C   GLN A   2       8.401  -4.746  24.953  0.00  0.00    +0.234 C 
ATOM     18  O   GLN A   2       9.529  -5.061  24.575  0.00  0.00    -0.274 OA
ATOM     19  N   SER A   3       7.327  -4.698  24.104  0.00  0.00    -0.301 N 
ATOM     20  H   SER A   3       6.415  -4.375  24.426  0.00  0.00    +0.150 HD
BRANCH  19  21
ATOM     21  CA  SER A   3       7.455  -4.877  22.655  0.00  0.00    +0.184 C 
BRANCH  21  22
ATOM     22  C   SER A   3       6.979  -3.567  22.000  0.00  0.00    +0.236 C 
ATOM     23  O   SER A   3       5.937  -3.518  21.345  0.00  0.00    -0.274 OA
ATOM     24  N   ALA A   4       7.756  -2.461  22.236  0.00  0.00    -0.305 N 
ATOM     25  H   ALA A   4       8.648  -2.539  22.719  0.00  0.00    +0.149 HD
BRANCH  24  26
ATOM     26  CA  ALA A   4       7.454  -1.162  21.650  0.00  0.00    +0.133 C 
ATOM     27  CB  ALA A   4       6.749  -0.240  22.634  0.00  0.00    +0.035 C 
BRANCH  26  28
ATOM     28  C   ALA A   4       8.765  -0.527  21.212  0.00  0.00    +0.245 C 
ATOM     29  O   ALA A   4       9.868  -0.928  21.580  0.00  0.00    -0.299 OA
ENDBRANCH  26  28
ENDBRANCH  24  26
ENDBRANCH  21  22
BRANCH  21  30
ATOM     30  CB  SER A   3       6.664  -6.089  22.154  0.00  0.00    +0.187 C 
BRANCH  30  31
ATOM     31  OG  SER A   3       5.301  -6.039  22.575  0.00  0.00    -0.393 OA
ATOM     32  H   SER A   3       4.801  -5.623  21.850  0.00  0.00    +0.209 HD
ENDBRANCH  30  31
ENDBRANCH  21  30
ENDBRANCH  19  21
ENDBRANCH   1  17
BRANCH   1  33
ATOM     33  CB  GLN A   2       6.607  -4.434  26.730  0.00  0.00    +0.041 C 
BRANCH  33  34
ATOM     34  CG  GLN A   2       6.199  -5.753  27.385  0.00  0.00    +0.098 C 
BRANCH  34  35
ATOM     35  CD  GLN A   2       5.203  -6.554  26.574  0.00  0.00    +0.211 C 
ATOM     36  OE1 GLN A   2       5.164  -6.517  25.349  0.00  0.00    -0.276 OA
ATOM     37  NE2 GLN A   2       4.274  -7.265  27.270  0.00  0.00    -0.329 N 
ATOM     38 HE21 GLN A   2       4.325  -7.436  28.263  0.00  0.00    +0.145 HD
ATOM     39 HE22 GLN A   2       3.628  -7.823  26.726  0.00  0.00    +0.145 HD
ENDBRANCH  34  35
ENDBRANCH  33  34
ENDBRANCH   1  33
TORSDOF 15
ENDMDL
MODEL 17
REMARK VINA RESULT:      -6.2      2.778      4.713
REMARK  Name = FQSA-mmff94.pdb
REMARK  16 active torsions:
REMARK  status: ('A' for Active; 'I' for Inactive)
REMARK    1  A    between atoms: _1  and  _2
REMARK    2  A    between atoms: _2  and  _3
REMARK    3  A    between atoms: _2  and  _5
REMARK    4  A    between atoms: _5  and  _6
REMARK    5  A    between atoms: _21  and  _22
REMARK    6  A    between atoms: _22  and  _23
REMARK    7  A    between atoms: _22  and  _25
REMARK    8  A    between atoms: _25  and  _26
REMARK    9  A    between atoms: _26  and  _27
REMARK   10  A    between atoms: _38  and  _39
REMARK   11  A    between atoms: _39  and  _40
REMARK   12  A    between atoms: _39  and  _42
REMARK   13  A    between atoms: _42  and  _43
REMARK   14  A    between atoms: _49  and  _50
REMARK   15  A    between atoms: _50  and  _51
REMARK   16  A    between atoms: _50  and  _53
REMARK                            x       y       z     vdW  Elec       q    Type
REMARK                         _______ _______ _______ _____ _____    ______ ____
ROOT
ATOM      1  CA  GLN A   2       8.659  -2.306  23.909  0.00  0.00    +0.159 C 
ENDROOT
BRANCH   1   3
ATOM      2  C   PHE A   1       9.894  -0.598  22.602  0.00  0.00    +0.231 C 
ATOM      3  N   GLN A   2       9.015  -0.920  23.606  0.00  0.00    -0.303 N 
ATOM      4  H   GLN A   2       8.633  -0.201  24.215  0.00  0.00    +0.149 HD
ATOM      5  O   PHE A   1      10.407  -1.451  21.878  0.00  0.00    -0.274 OA
BRANCH   2   6
ATOM      6  CA  PHE A   1      10.196   0.908  22.449  0.00  0.00    +0.142 C 
BRANCH   6   7
ATOM      7  N   PHE A   1       9.291   1.469  21.420  0.00  0.00    -0.320 NA
ATOM      8  H1  PHE A   1       8.338   1.450  21.785  0.00  0.00    +0.119 HD
ATOM      9  H2  PHE A   1       9.502   2.467  21.339  0.00  0.00    +0.119 HD
ENDBRANCH   6   7
BRANCH   6  10
ATOM     10  CB  PHE A   1      10.029   1.586  23.820  0.00  0.00    +0.063 C 
BRANCH  10  11
ATOM     11  CG  PHE A   1      10.249   3.080  23.798  0.00  0.00    -0.045 A 
ATOM     12  CD2 PHE A   1       9.218   3.952  24.171  0.00  0.00    +0.004 A 
ATOM     13  CE2 PHE A   1       9.410   5.334  24.145  0.00  0.00    +0.000 A 
ATOM     14  CZ  PHE A   1      10.636   5.859  23.744  0.00  0.00    +0.000 A 
ATOM     15  CE1 PHE A   1      11.668   5.003  23.364  0.00  0.00    +0.000 A 
ATOM     16  CD1 PHE A   1      11.477   3.619  23.391  0.00  0.00    +0.004 A 
ENDBRANCH  10  11
ENDBRANCH   6  10
ENDBRANCH   2   6
ENDBRANCH   1   3
BRANCH   1  17
ATOM     17  C   GLN A   2       7.448  -2.658  23.025  0.00  0.00    +0.234 C 
ATOM     18  O   GLN A   2       6.608  -1.820  22.700  0.00  0.00    -0.274 OA
ATOM     19  N   SER A   3       7.356  -3.975  22.657  0.00  0.00    -0.301 N 
ATOM     20  H   SER A   3       8.030  -4.663  22.989  0.00  0.00    +0.150 HD
BRANCH  19  21
ATOM     21  CA  SER A   3       6.181  -4.524  21.973  0.00  0.00    +0.184 C 
BRANCH  21  22
ATOM     22  C   SER A   3       5.100  -4.742  23.047  0.00  0.00    +0.236 C 
ATOM     23  O   SER A   3       3.900  -4.706  22.768  0.00  0.00    -0.274 OA
ATOM     24  N   ALA A   4       5.557  -5.029  24.309  0.00  0.00    -0.305 N 
ATOM     25  H   ALA A   4       6.548  -4.983  24.532  0.00  0.00    +0.149 HD
BRANCH  24  26
ATOM     26  CA  ALA A   4       4.653  -5.219  25.435  0.00  0.00    +0.133 C 
ATOM     27  CB  ALA A   4       4.799  -6.599  26.059  0.00  0.00    +0.035 C 
BRANCH  26  28
ATOM     28  C   ALA A   4       4.968  -4.157  26.477  0.00  0.00    +0.245 C 
ATOM     29  O   ALA A   4       5.807  -4.307  27.364  0.00  0.00    -0.299 OA
ENDBRANCH  26  28
ENDBRANCH  24  26
ENDBRANCH  21  22
BRANCH  21  30
ATOM     30  CB  SER A   3       6.510  -5.816  21.218  0.00  0.00    +0.187 C 
BRANCH  30  31
ATOM     31  OG  SER A   3       6.136  -6.972  21.967  0.00  0.00    -0.393 OA
ATOM     32  H   SER A   3       6.234  -7.735  21.370  0.00  0.00    +0.209 HD
ENDBRANCH  30  31
ENDBRANCH  21  30
ENDBRANCH  19  21
ENDBRANCH   1  17
BRANCH   1  33
ATOM     33  CB  GLN A   2       8.329  -2.456  25.403  0.00  0.00    +0.041 C 
BRANCH  33  34
ATOM     34  CG  GLN A   2       9.194  -3.487  26.126  0.00  0.00    +0.098 C 
BRANCH  34  35
ATOM     35  CD  GLN A   2       8.970  -4.909  25.657  0.00  0.00    +0.211 C 
ATOM     36  OE1 GLN A   2       9.301  -5.299  24.543  0.00  0.00    -0.276 OA
ATOM     37  NE2 GLN A   2       8.293  -5.736  26.501  0.00  0.00    -0.329 N 
ATOM     38 HE21 GLN A   2       8.103  -5.519  27.468  0.00  0.00    +0.145 HD
ATOM     39 HE22 GLN A   2       8.171  -6.693  26.197  0.00  0.00    +0.145 HD
ENDBRANCH  34  35
ENDBRANCH  33  34
ENDBRANCH   1  33
TORSDOF 15
ENDMDL
MODEL 18
REMARK VINA RESULT:      -6.2      2.543      4.830
REMARK  Name = FQSA-mmff94.pdb
REMARK  16 active torsions:
REMARK  status: ('A' for Active; 'I' for Inactive)
REMARK    1  A    between atoms: _1  and  _2
REMARK    2  A    between atoms: _2  and  _3
REMARK    3  A    between atoms: _2  and  _5
REMARK    4  A    between atoms: _5  and  _6
REMARK    5  A    between atoms: _21  and  _22
REMARK    6  A    between atoms: _22  and  _23
REMARK    7  A    between atoms: _22  and  _25
REMARK    8  A    between atoms: _25  and  _26
REMARK    9  A    between atoms: _26  and  _27
REMARK   10  A    between atoms: _38  and  _39
REMARK   11  A    between atoms: _39  and  _40
REMARK   12  A    between atoms: _39  and  _42
REMARK   13  A    between atoms: _42  and  _43
REMARK   14  A    between atoms: _49  and  _50
REMARK   15  A    between atoms: _50  and  _51
REMARK   16  A    between atoms: _50  and  _53
REMARK                            x       y       z     vdW  Elec       q    Type
REMARK                         _______ _______ _______ _____ _____    ______ ____
ROOT
ATOM      1  CA  GLN A   2       7.671  -2.956  22.611  0.00  0.00    +0.159 C 
ENDROOT
BRANCH   1   3
ATOM      2  C   PHE A   1       8.828  -1.079  21.477  0.00  0.00    +0.231 C 
ATOM      3  N   GLN A   2       7.671  -1.664  21.927  0.00  0.00    -0.303 N 
ATOM      4  H   GLN A   2       6.779  -1.180  21.853  0.00  0.00    +0.149 HD
ATOM      5  O   PHE A   1       9.927  -1.621  21.591  0.00  0.00    -0.274 OA
BRANCH   2   6
ATOM      6  CA  PHE A   1       8.652   0.308  20.820  0.00  0.00    +0.142 C 
BRANCH   6   7
ATOM      7  N   PHE A   1       8.002   0.127  19.502  0.00  0.00    -0.320 NA
ATOM      8  H1  PHE A   1       7.571  -0.797  19.480  0.00  0.00    +0.119 HD
ATOM      9  H2  PHE A   1       7.206   0.769  19.463  0.00  0.00    +0.119 HD
ENDBRANCH   6   7
BRANCH   6  10
ATOM     10  CB  PHE A   1       7.835   1.202  21.768  0.00  0.00    +0.063 C 
BRANCH  10  11
ATOM     11  CG  PHE A   1       8.651   2.263  22.468  0.00  0.00    -0.045 A 
ATOM     12  CD2 PHE A   1      10.033   2.098  22.632  0.00  0.00    +0.004 A 
ATOM     13  CE2 PHE A   1      10.792   3.070  23.285  0.00  0.00    +0.000 A 
ATOM     14  CZ  PHE A   1      10.178   4.216  23.783  0.00  0.00    +0.000 A 
ATOM     15  CE1 PHE A   1       8.803   4.390  23.632  0.00  0.00    +0.000 A 
ATOM     16  CD1 PHE A   1       8.042   3.418  22.977  0.00  0.00    +0.004 A 
ENDBRANCH  10  11
ENDBRANCH   6  10
ENDBRANCH   2   6
ENDBRANCH   1   3
BRANCH   1  17
ATOM     17  C   GLN A   2       6.257  -3.544  22.452  0.00  0.00    +0.234 C 
ATOM     18  O   GLN A   2       5.548  -3.296  21.477  0.00  0.00    -0.274 OA
ATOM     19  N   SER A   3       5.832  -4.334  23.489  0.00  0.00    -0.301 N 
ATOM     20  H   SER A   3       6.411  -4.476  24.315  0.00  0.00    +0.150 HD
BRANCH  19  21
ATOM     21  CA  SER A   3       4.456  -4.827  23.594  0.00  0.00    +0.184 C 
BRANCH  21  22
ATOM     22  C   SER A   3       4.131  -4.928  25.095  0.00  0.00    +0.236 C 
ATOM     23  O   SER A   3       3.012  -4.651  25.532  0.00  0.00    -0.274 OA
ATOM     24  N   ALA A   4       5.143  -5.392  25.899  0.00  0.00    -0.305 N 
ATOM     25  H   ALA A   4       6.078  -5.547  25.529  0.00  0.00    +0.149 HD
BRANCH  24  26
ATOM     26  CA  ALA A   4       4.996  -5.503  27.343  0.00  0.00    +0.133 C 
ATOM     27  CB  ALA A   4       4.574  -6.900  27.771  0.00  0.00    +0.035 C 
BRANCH  26  28
ATOM     28  C   ALA A   4       6.335  -5.161  27.980  0.00  0.00    +0.245 C 
ATOM     29  O   ALA A   4       7.228  -5.988  28.162  0.00  0.00    -0.299 OA
ENDBRANCH  26  28
ENDBRANCH  24  26
ENDBRANCH  21  22
BRANCH  21  30
ATOM     30  CB  SER A   3       4.271  -6.168  22.876  0.00  0.00    +0.187 C 
BRANCH  30  31
ATOM     31  OG  SER A   3       4.463  -7.270  23.761  0.00  0.00    -0.393 OA
ATOM     32  H   SER A   3       4.188  -6.969  24.646  0.00  0.00    +0.209 HD
ENDBRANCH  30  31
ENDBRANCH  21  30
ENDBRANCH  19  21
ENDBRANCH   1  17
BRANCH   1  33
ATOM     33  CB  GLN A   2       8.043  -2.775  24.091  0.00  0.00    +0.041 C 
BRANCH  33  34
ATOM     34  CG  GLN A   2       9.332  -3.488  24.497  0.00  0.00    +0.098 C 
BRANCH  34  35
ATOM     35  CD  GLN A   2       9.112  -4.884  25.041  0.00  0.00    +0.211 C 
ATOM     36  OE1 GLN A   2       8.019  -5.439  25.017  0.00  0.00    -0.276 OA
ATOM     37  NE2 GLN A   2      10.173  -5.481  25.650  0.00  0.00    -0.329 N 
ATOM     38 HE21 GLN A   2      11.120  -5.136  25.595  0.00  0.00    +0.145 HD
ATOM     39 HE22 GLN A   2      10.031  -6.425  25.986  0.00  0.00    +0.145 HD
ENDBRANCH  34  35
ENDBRANCH  33  34
ENDBRANCH   1  33
TORSDOF 15
ENDMDL
MODEL 19
REMARK VINA RESULT:      -6.2      2.438      7.082
REMARK  Name = FQSA-mmff94.pdb
REMARK  16 active torsions:
REMARK  status: ('A' for Active; 'I' for Inactive)
REMARK    1  A    between atoms: _1  and  _2
REMARK    2  A    between atoms: _2  and  _3
REMARK    3  A    between atoms: _2  and  _5
REMARK    4  A    between atoms: _5  and  _6
REMARK    5  A    between atoms: _21  and  _22
REMARK    6  A    between atoms: _22  and  _23
REMARK    7  A    between atoms: _22  and  _25
REMARK    8  A    between atoms: _25  and  _26
REMARK    9  A    between atoms: _26  and  _27
REMARK   10  A    between atoms: _38  and  _39
REMARK   11  A    between atoms: _39  and  _40
REMARK   12  A    between atoms: _39  and  _42
REMARK   13  A    between atoms: _42  and  _43
REMARK   14  A    between atoms: _49  and  _50
REMARK   15  A    between atoms: _50  and  _51
REMARK   16  A    between atoms: _50  and  _53
REMARK                            x       y       z     vdW  Elec       q    Type
REMARK                         _______ _______ _______ _____ _____    ______ ____
ROOT
ATOM      1  CA  GLN A   2       8.856  -0.449  21.092  0.00  0.00    +0.159 C 
ENDROOT
BRANCH   1   3
ATOM      2  C   PHE A   1       7.074  -1.620  22.357  0.00  0.00    +0.231 C 
ATOM      3  N   GLN A   2       8.109  -1.652  21.456  0.00  0.00    -0.303 N 
ATOM      4  H   GLN A   2       8.431  -2.532  21.062  0.00  0.00    +0.149 HD
ATOM      5  O   PHE A   1       6.692  -0.576  22.884  0.00  0.00    -0.274 OA
BRANCH   2   6
ATOM      6  CA  PHE A   1       6.427  -2.988  22.664  0.00  0.00    +0.142 C 
BRANCH   6   7
ATOM      7  N   PHE A   1       5.576  -3.376  21.515  0.00  0.00    -0.320 NA
ATOM      8  H1  PHE A   1       5.186  -2.528  21.104  0.00  0.00    +0.119 HD
ATOM      9  H2  PHE A   1       6.194  -3.740  20.786  0.00  0.00    +0.119 HD
ENDBRANCH   6   7
BRANCH   6  10
ATOM     10  CB  PHE A   1       7.542  -4.009  22.948  0.00  0.00    +0.063 C 
BRANCH  10  11
ATOM     11  CG  PHE A   1       7.610  -4.459  24.388  0.00  0.00    -0.045 A 
ATOM     12  CD2 PHE A   1       6.486  -5.020  25.007  0.00  0.00    +0.004 A 
ATOM     13  CE2 PHE A   1       6.538  -5.430  26.340  0.00  0.00    +0.000 A 
ATOM     14  CZ  PHE A   1       7.716  -5.283  27.069  0.00  0.00    +0.000 A 
ATOM     15  CE1 PHE A   1       8.840  -4.721  26.466  0.00  0.00    +0.000 A 
ATOM     16  CD1 PHE A   1       8.789  -4.310  25.132  0.00  0.00    +0.004 A 
ENDBRANCH  10  11
ENDBRANCH   6  10
ENDBRANCH   2   6
ENDBRANCH   1   3
BRANCH   1  17
ATOM     17  C   GLN A   2       9.454   0.115  22.394  0.00  0.00    +0.234 C 
ATOM     18  O   GLN A   2      10.214  -0.541  23.106  0.00  0.00    -0.274 OA
ATOM     19  N   SER A   3       9.051   1.384  22.722  0.00  0.00    -0.301 N 
ATOM     20  H   SER A   3       8.373   1.885  22.150  0.00  0.00    +0.150 HD
BRANCH  19  21
ATOM     21  CA  SER A   3       9.373   2.009  24.008  0.00  0.00    +0.184 C 
BRANCH  21  22
ATOM     22  C   SER A   3       8.182   1.739  24.945  0.00  0.00    +0.236 C 
ATOM     23  O   SER A   3       7.328   2.601  25.164  0.00  0.00    -0.274 OA
ATOM     24  N   ALA A   4       8.106   0.474  25.472  0.00  0.00    -0.305 N 
ATOM     25  H   ALA A   4       8.857  -0.198  25.335  0.00  0.00    +0.149 HD
BRANCH  24  26
ATOM     26  CA  ALA A   4       7.058   0.085  26.405  0.00  0.00    +0.133 C 
ATOM     27  CB  ALA A   4       6.704  -1.389  26.287  0.00  0.00    +0.035 C 
BRANCH  26  28
ATOM     28  C   ALA A   4       7.552   0.375  27.815  0.00  0.00    +0.245 C 
ATOM     29  O   ALA A   4       7.031   1.207  28.557  0.00  0.00    -0.299 OA
ENDBRANCH  26  28
ENDBRANCH  24  26
ENDBRANCH  21  22
BRANCH  21  30
ATOM     30  CB  SER A   3       9.661   3.506  23.862  0.00  0.00    +0.187 C 
BRANCH  30  31
ATOM     31  OG  SER A   3       8.764   4.127  22.942  0.00  0.00    -0.393 OA
ATOM     32  H   SER A   3       8.098   3.457  22.706  0.00  0.00    +0.209 HD
ENDBRANCH  30  31
ENDBRANCH  21  30
ENDBRANCH  19  21
ENDBRANCH   1  17
BRANCH   1  33
ATOM     33  CB  GLN A   2       7.927   0.569  20.411  0.00  0.00    +0.041 C 
BRANCH  33  34
ATOM     34  CG  GLN A   2       7.510   0.174  18.995  0.00  0.00    +0.098 C 
BRANCH  34  35
ATOM     35  CD  GLN A   2       6.073  -0.294  18.890  0.00  0.00    +0.211 C 
ATOM     36  OE1 GLN A   2       5.680  -1.341  19.392  0.00  0.00    -0.276 OA
ATOM     37  NE2 GLN A   2       5.235   0.461  18.129  0.00  0.00    -0.329 N 
ATOM     38 HE21 GLN A   2       5.459   1.387  17.794  0.00  0.00    +0.145 HD
ATOM     39 HE22 GLN A   2       4.269   0.162  18.085  0.00  0.00    +0.145 HD
ENDBRANCH  34  35
ENDBRANCH  33  34
ENDBRANCH   1  33
TORSDOF 15
ENDMDL
MODEL 20
REMARK VINA RESULT:      -6.2      2.395      5.369
REMARK  Name = FQSA-mmff94.pdb
REMARK  16 active torsions:
REMARK  status: ('A' for Active; 'I' for Inactive)
REMARK    1  A    between atoms: _1  and  _2
REMARK    2  A    between atoms: _2  and  _3
REMARK    3  A    between atoms: _2  and  _5
REMARK    4  A    between atoms: _5  and  _6
REMARK    5  A    between atoms: _21  and  _22
REMARK    6  A    between atoms: _22  and  _23
REMARK    7  A    between atoms: _22  and  _25
REMARK    8  A    between atoms: _25  and  _26
REMARK    9  A    between atoms: _26  and  _27
REMARK   10  A    between atoms: _38  and  _39
REMARK   11  A    between atoms: _39  and  _40
REMARK   12  A    between atoms: _39  and  _42
REMARK   13  A    between atoms: _42  and  _43
REMARK   14  A    between atoms: _49  and  _50
REMARK   15  A    between atoms: _50  and  _51
REMARK   16  A    between atoms: _50  and  _53
REMARK                            x       y       z     vdW  Elec       q    Type
REMARK                         _______ _______ _______ _____ _____    ______ ____
ROOT
ATOM      1  CA  GLN A   2       6.961  -1.215  22.195  0.00  0.00    +0.159 C 
ENDROOT
BRANCH   1   3
ATOM      2  C   PHE A   1       6.682  -1.180  24.658  0.00  0.00    +0.231 C 
ATOM      3  N   GLN A   2       7.400  -1.551  23.549  0.00  0.00    -0.303 N 
ATOM      4  H   GLN A   2       8.298  -2.018  23.641  0.00  0.00    +0.149 HD
ATOM      5  O   PHE A   1       5.613  -0.575  24.579  0.00  0.00    -0.274 OA
BRANCH   2   6
ATOM      6  CA  PHE A   1       7.313  -1.573  26.012  0.00  0.00    +0.142 C 
BRANCH   6   7
ATOM      7  N   PHE A   1       8.239  -2.708  25.789  0.00  0.00    -0.320 NA
ATOM      8  H1  PHE A   1       7.747  -3.573  26.016  0.00  0.00    +0.119 HD
ATOM      9  H2  PHE A   1       8.402  -2.776  24.781  0.00  0.00    +0.119 HD
ENDBRANCH   6   7
BRANCH   6  10
ATOM     10  CB  PHE A   1       8.015  -0.340  26.605  0.00  0.00    +0.063 C 
BRANCH  10  11
ATOM     11  CG  PHE A   1       8.825   0.448  25.603  0.00  0.00    -0.045 A 
ATOM     12  CD2 PHE A   1       8.317   1.635  25.061  0.00  0.00    +0.004 A 
ATOM     13  CE2 PHE A   1       9.056   2.364  24.128  0.00  0.00    +0.000 A 
ATOM     14  CZ  PHE A   1      10.310   1.912  23.726  0.00  0.00    +0.000 A 
ATOM     15  CE1 PHE A   1      10.824   0.729  24.253  0.00  0.00    +0.000 A 
ATOM     16  CD1 PHE A   1      10.086  -0.002  25.187  0.00  0.00    +0.004 A 
ENDBRANCH  10  11
ENDBRANCH   6  10
ENDBRANCH   2   6
ENDBRANCH   1   3
BRANCH   1  17
ATOM     17  C   GLN A   2       6.339  -2.492  21.599  0.00  0.00    +0.234 C 
ATOM     18  O   GLN A   2       5.571  -2.461  20.638  0.00  0.00    -0.274 OA
ATOM     19  N   SER A   3       6.673  -3.658  22.238  0.00  0.00    -0.301 N 
ATOM     20  H   SER A   3       7.261  -3.653  23.069  0.00  0.00    +0.150 HD
BRANCH  19  21
ATOM     21  CA  SER A   3       6.036  -4.941  21.925  0.00  0.00    +0.184 C 
BRANCH  21  22
ATOM     22  C   SER A   3       4.991  -5.200  23.025  0.00  0.00    +0.236 C 
ATOM     23  O   SER A   3       3.785  -5.229  22.772  0.00  0.00    -0.274 OA
ATOM     24  N   ALA A   4       5.487  -5.446  24.280  0.00  0.00    -0.305 N 
ATOM     25  H   ALA A   4       6.480  -5.346  24.481  0.00  0.00    +0.149 HD
BRANCH  24  26
ATOM     26  CA  ALA A   4       4.618  -5.668  25.428  0.00  0.00    +0.133 C 
ATOM     27  CB  ALA A   4       4.277  -7.139  25.611  0.00  0.00    +0.035 C 
BRANCH  26  28
ATOM     28  C   ALA A   4       5.336  -5.156  26.668  0.00  0.00    +0.245 C 
ATOM     29  O   ALA A   4       6.558  -5.033  26.740  0.00  0.00    -0.299 OA
ENDBRANCH  26  28
ENDBRANCH  24  26
ENDBRANCH  21  22
BRANCH  21  30
ATOM     30  CB  SER A   3       7.058  -6.078  21.825  0.00  0.00    +0.187 C 
BRANCH  30  31
ATOM     31  OG  SER A   3       8.105  -5.930  22.783  0.00  0.00    -0.393 OA
ATOM     32  H   SER A   3       8.353  -6.828  23.067  0.00  0.00    +0.209 HD
ENDBRANCH  30  31
ENDBRANCH  21  30
ENDBRANCH  19  21
ENDBRANCH   1  17
BRANCH   1  33
ATOM     33  CB  GLN A   2       8.152  -0.724  21.356  0.00  0.00    +0.041 C 
BRANCH  33  34
ATOM     34  CG  GLN A   2       7.878   0.572  20.594  0.00  0.00    +0.098 C 
BRANCH  34  35
ATOM     35  CD  GLN A   2       7.070   0.378  19.328  0.00  0.00    +0.211 C 
ATOM     36  OE1 GLN A   2       7.590   0.207  18.231  0.00  0.00    -0.276 OA
ATOM     37  NE2 GLN A   2       5.718   0.488  19.439  0.00  0.00    -0.329 N 
ATOM     38 HE21 GLN A   2       5.225   0.504  20.320  0.00  0.00    +0.145 HD
ATOM     39 HE22 GLN A   2       5.180   0.328  18.598  0.00  0.00    +0.145 HD
ENDBRANCH  34  35
ENDBRANCH  33  34
ENDBRANCH   1  33
TORSDOF 15
ENDMDL
