REMARK  Name = LQAE-mmff94.pdb
REMARK  19 active torsions:
REMARK  status: ('A' for Active; 'I' for Inactive)
REMARK    1  A    between atoms: _1  and  _2
REMARK    2  A    between atoms: _2  and  _3
REMARK    3  A    between atoms: _2  and  _5
REMARK    4  A    between atoms: _5  and  _6
REMARK    5  A    between atoms: _6  and  _7
REMARK    6  A    between atoms: _6  and  _8
REMARK    7  A    between atoms: _20  and  _21
REMARK    8  A    between atoms: _21  and  _22
REMARK    9  A    between atoms: _21  and  _24
REMARK   10  A    between atoms: _24  and  _25
REMARK   11  A    between atoms: _25  and  _26
REMARK   12  A    between atoms: _37  and  _38
REMARK   13  A    between atoms: _38  and  _39
REMARK   14  A    between atoms: _38  and  _41
REMARK   15  A    between atoms: _47  and  _48
REMARK   16  A    between atoms: _48  and  _49
REMARK   17  A    between atoms: _48  and  _51
REMARK   18  A    between atoms: _51  and  _52
REMARK   19  A    between atoms: _52  and  _53
REMARK                            x       y       z     vdW  Elec       q    Type
REMARK                         _______ _______ _______ _____ _____    ______ ____
ROOT
ATOM      1  CA  GLN A   2       4.873   0.071  -1.141  0.00  0.00    +0.159 C 
ENDROOT
BRANCH   1   2
ATOM      2  C   GLN A   2       5.310   1.548  -1.168  0.00  0.00    +0.234 C 
ATOM      3  O   GLN A   2       4.575   2.437  -1.600  0.00  0.00    -0.274 OA
ATOM      4  N   ALA A   3       6.578   1.787  -0.709  0.00  0.00    -0.303 N 
ATOM      5  H   ALA A   3       7.169   1.030  -0.370  0.00  0.00    +0.149 HD
BRANCH   4   6
ATOM      6  CA  ALA A   3       7.205   3.104  -0.747  0.00  0.00    +0.156 C 
ATOM      7  CB  ALA A   3       6.729   3.981   0.403  0.00  0.00    +0.038 C 
BRANCH   6   8
ATOM      8  C   ALA A   3       8.727   2.885  -0.671  0.00  0.00    +0.234 C 
ATOM      9  N   GLU A   4       9.483   3.994  -0.947  0.00  0.00    -0.304 N 
ATOM     10  H   GLU A   4       9.045   4.879  -1.180  0.00  0.00    +0.149 HD
ATOM     11  O   ALA A   3       9.205   1.793  -0.365  0.00  0.00    -0.274 OA
BRANCH   9  12
ATOM     12  CA  GLU A   4      10.944   3.971  -0.980  0.00  0.00    +0.136 C 
BRANCH  12  13
ATOM     13  C   GLU A   4      11.412   5.397  -0.703  0.00  0.00    +0.245 C 
ATOM     14  O   GLU A   4      10.648   6.349  -0.534  0.00  0.00    -0.299 OA
ENDBRANCH  12  13
BRANCH  12  15
ATOM     15  CB  GLU A   4      11.453   3.488  -2.337  0.00  0.00    +0.035 C 
BRANCH  15  16
ATOM     16  CG  GLU A   4      12.949   3.183  -2.325  0.00  0.00    +0.054 C 
BRANCH  16  17
ATOM     17  CD  GLU A   4      13.514   2.746  -3.678  0.00  0.00    +0.042 C 
ATOM     18  OE2 GLU A   4      14.762   2.553  -3.671  0.00  0.00    -0.550 OA
ATOM     19  OE1 GLU A   4      12.687   2.651  -4.624  0.00  0.00    -0.550 OA
ENDBRANCH  16  17
ENDBRANCH  15  16
ENDBRANCH  12  15
ENDBRANCH   9  12
ENDBRANCH   6   8
ENDBRANCH   4   6
ENDBRANCH   1   2
BRANCH   1  21
ATOM     20  C   LEU A   1       2.674  -0.989  -0.669  0.00  0.00    +0.230 C 
ATOM     21  N   GLN A   2       3.411   0.081  -1.112  0.00  0.00    -0.303 N 
ATOM     22  H   GLN A   2       2.956   0.915  -1.472  0.00  0.00    +0.149 HD
ATOM     23  O   LEU A   1       3.187  -2.019  -0.235  0.00  0.00    -0.274 OA
BRANCH  20  24
ATOM     24  CA  LEU A   1       1.142  -0.799  -0.759  0.00  0.00    +0.138 C 
BRANCH  24  25
ATOM     25  N   LEU A   1       0.486  -2.123  -0.715  0.00  0.00    -0.320 NA
ATOM     26  H1  LEU A   1       0.886  -2.690  -1.467  0.00  0.00    +0.119 HD
ATOM     27  H2  LEU A   1       0.823  -2.594   0.130  0.00  0.00    +0.119 HD
ENDBRANCH  24  25
BRANCH  24  28
ATOM     28  CB  LEU A   1       0.667   0.100   0.394  0.00  0.00    +0.031 C 
BRANCH  28  29
ATOM     29  CG  LEU A   1      -0.856   0.334   0.463  0.00  0.00    -0.015 C 
ATOM     30  CD2 LEU A   1      -1.194   1.175   1.697  0.00  0.00    +0.007 C 
ATOM     31  CD1 LEU A   1      -1.398   1.017  -0.793  0.00  0.00    +0.007 C 
ENDBRANCH  28  29
ENDBRANCH  24  28
ENDBRANCH  20  24
ENDBRANCH   1  21
BRANCH   1  32
ATOM     32  CB  GLN A   2       5.377  -0.688  -2.376  0.00  0.00    +0.041 C 
BRANCH  32  33
ATOM     33  CG  GLN A   2       6.870  -1.006  -2.331  0.00  0.00    +0.098 C 
BRANCH  33  34
ATOM     34  CD  GLN A   2       7.215  -2.040  -3.377  0.00  0.00    +0.211 C 
ATOM     35  OE1 GLN A   2       7.332  -3.235  -3.132  0.00  0.00    -0.276 OA
ATOM     36  NE2 GLN A   2       7.324  -1.565  -4.651  0.00  0.00    -0.329 N 
ATOM     37 HE21 GLN A   2       7.536  -0.591  -4.826  0.00  0.00    +0.145 HD
ATOM     38 HE22 GLN A   2       7.651  -2.230  -5.340  0.00  0.00    +0.145 HD
ENDBRANCH  33  34
ENDBRANCH  32  33
ENDBRANCH   1  32
TORSDOF 16
