MODEL 1
REMARK VINA RESULT:      -6.6      0.000      0.000
REMARK  Name = LQAG-mmff94.pdb
REMARK  16 active torsions:
REMARK  status: ('A' for Active; 'I' for Inactive)
REMARK    1  A    between atoms: _1  and  _2
REMARK    2  A    between atoms: _2  and  _3
REMARK    3  A    between atoms: _2  and  _5
REMARK    4  A    between atoms: _5  and  _6
REMARK    5  A    between atoms: _6  and  _7
REMARK    6  A    between atoms: _6  and  _8
REMARK    7  A    between atoms: _20  and  _21
REMARK    8  A    between atoms: _21  and  _22
REMARK    9  A    between atoms: _21  and  _24
REMARK   10  A    between atoms: _24  and  _25
REMARK   11  A    between atoms: _25  and  _26
REMARK   12  A    between atoms: _37  and  _38
REMARK   13  A    between atoms: _38  and  _39
REMARK   14  A    between atoms: _38  and  _41
REMARK   15  A    between atoms: _47  and  _48
REMARK   16  A    between atoms: _48  and  _49
REMARK                            x       y       z     vdW  Elec       q    Type
REMARK                         _______ _______ _______ _____ _____    ______ ____
ROOT
ATOM      1  CA  GLN A   2       9.233  -3.789  24.716  0.00  0.00    +0.159 C 
ENDROOT
BRANCH   1   3
ATOM      2  C   LEU A   1       9.704  -1.408  24.179  0.00  0.00    +0.230 C 
ATOM      3  N   GLN A   2       9.010  -2.353  24.890  0.00  0.00    -0.303 N 
ATOM      4  H   GLN A   2       8.321  -2.078  25.585  0.00  0.00    +0.149 HD
ATOM      5  O   LEU A   1      10.556  -1.703  23.342  0.00  0.00    -0.274 OA
BRANCH   2   6
ATOM      6  CA  LEU A   1       9.345   0.056  24.527  0.00  0.00    +0.138 C 
BRANCH   6   7
ATOM      7  N   LEU A   1       8.763   0.105  25.884  0.00  0.00    -0.320 NA
ATOM      8  H1  LEU A   1       9.107  -0.706  26.401  0.00  0.00    +0.119 HD
ATOM      9  H2  LEU A   1       9.195   0.894  26.373  0.00  0.00    +0.119 HD
ENDBRANCH   6   7
BRANCH   6  10
ATOM     10  CB  LEU A   1      10.597   0.942  24.425  0.00  0.00    +0.031 C 
BRANCH  10  11
ATOM     11  CG  LEU A   1      10.439   2.213  23.565  0.00  0.00    -0.015 C 
ATOM     12  CD2 LEU A   1      10.103   1.822  22.123  0.00  0.00    +0.007 C 
ATOM     13  CD1 LEU A   1       9.362   3.153  24.109  0.00  0.00    +0.007 C 
ENDBRANCH  10  11
ENDBRANCH   6  10
ENDBRANCH   2   6
ENDBRANCH   1   3
BRANCH   1  14
ATOM     14  C   GLN A   2       8.170  -4.275  23.713  0.00  0.00    +0.234 C 
ATOM     15  O   GLN A   2       8.137  -5.438  23.309  0.00  0.00    -0.274 OA
ATOM     16  N   ALA A   3       7.296  -3.312  23.277  0.00  0.00    -0.303 N 
ATOM     17  H   ALA A   3       7.351  -2.359  23.627  0.00  0.00    +0.149 HD
BRANCH  16  18
ATOM     18  CA  ALA A   3       6.267  -3.569  22.276  0.00  0.00    +0.156 C 
ATOM     19  CB  ALA A   3       4.916  -3.831  22.929  0.00  0.00    +0.038 C 
BRANCH  18  20
ATOM     20  C   ALA A   3       6.203  -2.333  21.359  0.00  0.00    +0.233 C 
ATOM     21  N   GLY A   4       6.984  -1.274  21.745  0.00  0.00    -0.307 N 
ATOM     22  H   GLY A   4       7.516  -1.297  22.612  0.00  0.00    +0.149 HD
ATOM     23  O   ALA A   3       5.505  -2.305  20.345  0.00  0.00    -0.274 OA
BRANCH  21  24
ATOM     24  CA  GLY A   4       7.007  -0.040  20.988  0.00  0.00    +0.175 C 
BRANCH  24  25
ATOM     25  C   GLY A   4       8.021  -0.143  19.868  0.00  0.00    +0.242 C 
ATOM     26  O   GLY A   4       7.735  -0.008  18.680  0.00  0.00    -0.299 OA
ENDBRANCH  24  25
ENDBRANCH  21  24
ENDBRANCH  18  20
ENDBRANCH  16  18
ENDBRANCH   1  14
BRANCH   1  27
ATOM     27  CB  GLN A   2       9.112  -4.513  26.065  0.00  0.00    +0.041 C 
BRANCH  27  28
ATOM     28  CG  GLN A   2       7.793  -4.248  26.791  0.00  0.00    +0.098 C 
BRANCH  28  29
ATOM     29  CD  GLN A   2       7.046  -5.513  27.153  0.00  0.00    +0.211 C 
ATOM     30  OE1 GLN A   2       7.223  -6.110  28.210  0.00  0.00    -0.276 OA
ATOM     31  NE2 GLN A   2       6.210  -6.020  26.206  0.00  0.00    -0.329 N 
ATOM     32 HE21 GLN A   2       5.959  -5.535  25.357  0.00  0.00    +0.145 HD
ATOM     33 HE22 GLN A   2       5.690  -6.854  26.452  0.00  0.00    +0.145 HD
ENDBRANCH  28  29
ENDBRANCH  27  28
ENDBRANCH   1  27
TORSDOF 13
ENDMDL
MODEL 2
REMARK VINA RESULT:      -6.6      3.006      7.590
REMARK  Name = LQAG-mmff94.pdb
REMARK  16 active torsions:
REMARK  status: ('A' for Active; 'I' for Inactive)
REMARK    1  A    between atoms: _1  and  _2
REMARK    2  A    between atoms: _2  and  _3
REMARK    3  A    between atoms: _2  and  _5
REMARK    4  A    between atoms: _5  and  _6
REMARK    5  A    between atoms: _6  and  _7
REMARK    6  A    between atoms: _6  and  _8
REMARK    7  A    between atoms: _20  and  _21
REMARK    8  A    between atoms: _21  and  _22
REMARK    9  A    between atoms: _21  and  _24
REMARK   10  A    between atoms: _24  and  _25
REMARK   11  A    between atoms: _25  and  _26
REMARK   12  A    between atoms: _37  and  _38
REMARK   13  A    between atoms: _38  and  _39
REMARK   14  A    between atoms: _38  and  _41
REMARK   15  A    between atoms: _47  and  _48
REMARK   16  A    between atoms: _48  and  _49
REMARK                            x       y       z     vdW  Elec       q    Type
REMARK                         _______ _______ _______ _____ _____    ______ ____
ROOT
ATOM      1  CA  GLN A   2       8.184  -0.174  20.685  0.00  0.00    +0.159 C 
ENDROOT
BRANCH   1   3
ATOM      2  C   LEU A   1       7.731  -2.133  22.147  0.00  0.00    +0.230 C 
ATOM      3  N   GLN A   2       7.284  -1.147  21.305  0.00  0.00    -0.303 N 
ATOM      4  H   GLN A   2       6.298  -1.073  21.068  0.00  0.00    +0.149 HD
ATOM      5  O   LEU A   1       8.918  -2.263  22.443  0.00  0.00    -0.274 OA
BRANCH   2   6
ATOM      6  CA  LEU A   1       6.628  -3.079  22.677  0.00  0.00    +0.138 C 
BRANCH   6   7
ATOM      7  N   LEU A   1       5.507  -3.106  21.716  0.00  0.00    -0.320 NA
ATOM      8  H1  LEU A   1       5.718  -2.441  20.969  0.00  0.00    +0.119 HD
ATOM      9  H2  LEU A   1       5.536  -4.010  21.237  0.00  0.00    +0.119 HD
ENDBRANCH   6   7
BRANCH   6  10
ATOM     10  CB  LEU A   1       7.207  -4.487  22.898  0.00  0.00    +0.031 C 
BRANCH  10  11
ATOM     11  CG  LEU A   1       7.353  -4.916  24.372  0.00  0.00    -0.015 C 
ATOM     12  CD2 LEU A   1       8.838  -5.022  24.734  0.00  0.00    +0.007 C 
ATOM     13  CD1 LEU A   1       6.655  -3.951  25.331  0.00  0.00    +0.007 C 
ENDBRANCH  10  11
ENDBRANCH   6  10
ENDBRANCH   2   6
ENDBRANCH   1   3
BRANCH   1  14
ATOM     14  C   GLN A   2       7.993   1.147  21.454  0.00  0.00    +0.234 C 
ATOM     15  O   GLN A   2       6.994   1.852  21.303  0.00  0.00    -0.274 OA
ATOM     16  N   ALA A   3       9.030   1.494  22.282  0.00  0.00    -0.303 N 
ATOM     17  H   ALA A   3       9.844   0.893  22.382  0.00  0.00    +0.149 HD
BRANCH  16  18
ATOM     18  CA  ALA A   3       9.059   2.742  23.037  0.00  0.00    +0.156 C 
ATOM     19  CB  ALA A   3       8.203   2.646  24.293  0.00  0.00    +0.038 C 
BRANCH  18  20
ATOM     20  C   ALA A   3      10.530   3.026  23.394  0.00  0.00    +0.233 C 
ATOM     21  N   GLY A   4      10.957   4.307  23.154  0.00  0.00    -0.307 N 
ATOM     22  H   GLY A   4      10.349   4.993  22.713  0.00  0.00    +0.149 HD
ATOM     23  O   ALA A   3      11.267   2.161  23.871  0.00  0.00    -0.274 OA
BRANCH  21  24
ATOM     24  CA  GLY A   4      12.322   4.708  23.423  0.00  0.00    +0.175 C 
BRANCH  24  25
ATOM     25  C   GLY A   4      12.831   5.582  22.297  0.00  0.00    +0.242 C 
ATOM     26  O   GLY A   4      13.996   5.569  21.903  0.00  0.00    -0.299 OA
ENDBRANCH  24  25
ENDBRANCH  21  24
ENDBRANCH  18  20
ENDBRANCH  16  18
ENDBRANCH   1  14
BRANCH   1  27
ATOM     27  CB  GLN A   2       7.851  -0.015  19.194  0.00  0.00    +0.041 C 
BRANCH  27  28
ATOM     28  CG  GLN A   2       6.365  -0.183  18.875  0.00  0.00    +0.098 C 
BRANCH  28  29
ATOM     29  CD  GLN A   2       5.762   1.023  18.187  0.00  0.00    +0.211 C 
ATOM     30  OE1 GLN A   2       6.158   1.437  17.103  0.00  0.00    -0.276 OA
ATOM     31  NE2 GLN A   2       4.795   1.694  18.871  0.00  0.00    -0.329 N 
ATOM     32 HE21 GLN A   2       4.370   1.358  19.722  0.00  0.00    +0.145 HD
ATOM     33 HE22 GLN A   2       4.372   2.489  18.406  0.00  0.00    +0.145 HD
ENDBRANCH  28  29
ENDBRANCH  27  28
ENDBRANCH   1  27
TORSDOF 13
ENDMDL
MODEL 3
REMARK VINA RESULT:      -6.5      2.379      6.425
REMARK  Name = LQAG-mmff94.pdb
REMARK  16 active torsions:
REMARK  status: ('A' for Active; 'I' for Inactive)
REMARK    1  A    between atoms: _1  and  _2
REMARK    2  A    between atoms: _2  and  _3
REMARK    3  A    between atoms: _2  and  _5
REMARK    4  A    between atoms: _5  and  _6
REMARK    5  A    between atoms: _6  and  _7
REMARK    6  A    between atoms: _6  and  _8
REMARK    7  A    between atoms: _20  and  _21
REMARK    8  A    between atoms: _21  and  _22
REMARK    9  A    between atoms: _21  and  _24
REMARK   10  A    between atoms: _24  and  _25
REMARK   11  A    between atoms: _25  and  _26
REMARK   12  A    between atoms: _37  and  _38
REMARK   13  A    between atoms: _38  and  _39
REMARK   14  A    between atoms: _38  and  _41
REMARK   15  A    between atoms: _47  and  _48
REMARK   16  A    between atoms: _48  and  _49
REMARK                            x       y       z     vdW  Elec       q    Type
REMARK                         _______ _______ _______ _____ _____    ______ ____
ROOT
ATOM      1  CA  GLN A   2       6.893  -1.006  21.688  0.00  0.00    +0.159 C 
ENDROOT
BRANCH   1   3
ATOM      2  C   LEU A   1       7.927  -0.571  23.906  0.00  0.00    +0.230 C 
ATOM      3  N   GLN A   2       7.905  -1.252  22.715  0.00  0.00    -0.303 N 
ATOM      4  H   GLN A   2       8.616  -1.947  22.500  0.00  0.00    +0.149 HD
ATOM      5  O   LEU A   1       7.094   0.287  24.194  0.00  0.00    -0.274 OA
BRANCH   2   6
ATOM      6  CA  LEU A   1       9.094  -0.954  24.848  0.00  0.00    +0.138 C 
BRANCH   6   7
ATOM      7  N   LEU A   1       9.690   0.276  25.408  0.00  0.00    -0.320 NA
ATOM      8  H1  LEU A   1      10.344   0.000  26.144  0.00  0.00    +0.119 HD
ATOM      9  H2  LEU A   1      10.304   0.672  24.690  0.00  0.00    +0.119 HD
ENDBRANCH   6   7
BRANCH   6  10
ATOM     10  CB  LEU A   1       8.585  -1.884  25.962  0.00  0.00    +0.031 C 
BRANCH  10  11
ATOM     11  CG  LEU A   1       8.239  -3.320  25.515  0.00  0.00    -0.015 C 
ATOM     12  CD2 LEU A   1       9.401  -3.903  24.705  0.00  0.00    +0.007 C 
ATOM     13  CD1 LEU A   1       7.921  -4.237  26.698  0.00  0.00    +0.007 C 
ENDBRANCH  10  11
ENDBRANCH   6  10
ENDBRANCH   2   6
ENDBRANCH   1   3
BRANCH   1  14
ATOM     14  C   GLN A   2       6.297  -2.381  21.328  0.00  0.00    +0.234 C 
ATOM     15  O   GLN A   2       5.471  -2.518  20.425  0.00  0.00    -0.274 OA
ATOM     16  N   ALA A   3       6.723  -3.424  22.110  0.00  0.00    -0.303 N 
ATOM     17  H   ALA A   3       7.404  -3.278  22.851  0.00  0.00    +0.149 HD
BRANCH  16  18
ATOM     18  CA  ALA A   3       6.218  -4.784  21.963  0.00  0.00    +0.156 C 
ATOM     19  CB  ALA A   3       7.325  -5.809  22.173  0.00  0.00    +0.038 C 
BRANCH  18  20
ATOM     20  C   ALA A   3       5.094  -4.968  23.000  0.00  0.00    +0.233 C 
ATOM     21  N   GLY A   4       5.499  -5.407  24.235  0.00  0.00    -0.307 N 
ATOM     22  H   GLY A   4       6.470  -5.648  24.418  0.00  0.00    +0.149 HD
ATOM     23  O   ALA A   3       3.915  -4.728  22.737  0.00  0.00    -0.274 OA
BRANCH  21  24
ATOM     24  CA  GLY A   4       4.547  -5.643  25.299  0.00  0.00    +0.175 C 
BRANCH  24  25
ATOM     25  C   GLY A   4       4.297  -7.128  25.445  0.00  0.00    +0.242 C 
ATOM     26  O   GLY A   4       3.757  -7.814  24.579  0.00  0.00    -0.299 OA
ENDBRANCH  24  25
ENDBRANCH  21  24
ENDBRANCH  18  20
ENDBRANCH  16  18
ENDBRANCH   1  14
BRANCH   1  27
ATOM     27  CB  GLN A   2       7.528  -0.326  20.467  0.00  0.00    +0.041 C 
BRANCH  27  28
ATOM     28  CG  GLN A   2       6.625   0.710  19.800  0.00  0.00    +0.098 C 
BRANCH  28  29
ATOM     29  CD  GLN A   2       6.318   0.393  18.352  0.00  0.00    +0.211 C 
ATOM     30  OE1 GLN A   2       6.527   1.185  17.439  0.00  0.00    -0.276 OA
ATOM     31  NE2 GLN A   2       5.714  -0.802  18.104  0.00  0.00    -0.329 N 
ATOM     32 HE21 GLN A   2       5.594  -1.527  18.796  0.00  0.00    +0.145 HD
ATOM     33 HE22 GLN A   2       5.528  -1.029  17.135  0.00  0.00    +0.145 HD
ENDBRANCH  28  29
ENDBRANCH  27  28
ENDBRANCH   1  27
TORSDOF 13
ENDMDL
MODEL 4
REMARK VINA RESULT:      -6.5      2.249      5.691
REMARK  Name = LQAG-mmff94.pdb
REMARK  16 active torsions:
REMARK  status: ('A' for Active; 'I' for Inactive)
REMARK    1  A    between atoms: _1  and  _2
REMARK    2  A    between atoms: _2  and  _3
REMARK    3  A    between atoms: _2  and  _5
REMARK    4  A    between atoms: _5  and  _6
REMARK    5  A    between atoms: _6  and  _7
REMARK    6  A    between atoms: _6  and  _8
REMARK    7  A    between atoms: _20  and  _21
REMARK    8  A    between atoms: _21  and  _22
REMARK    9  A    between atoms: _21  and  _24
REMARK   10  A    between atoms: _24  and  _25
REMARK   11  A    between atoms: _25  and  _26
REMARK   12  A    between atoms: _37  and  _38
REMARK   13  A    between atoms: _38  and  _39
REMARK   14  A    between atoms: _38  and  _41
REMARK   15  A    between atoms: _47  and  _48
REMARK   16  A    between atoms: _48  and  _49
REMARK                            x       y       z     vdW  Elec       q    Type
REMARK                         _______ _______ _______ _____ _____    ______ ____
ROOT
ATOM      1  CA  GLN A   2       9.467  -1.408  23.281  0.00  0.00    +0.159 C 
ENDROOT
BRANCH   1   3
ATOM      2  C   LEU A   1       8.311  -0.718  21.192  0.00  0.00    +0.230 C 
ATOM      3  N   GLN A   2       8.299  -1.364  22.402  0.00  0.00    -0.303 N 
ATOM      4  H   GLN A   2       7.456  -1.824  22.737  0.00  0.00    +0.149 HD
ATOM      5  O   LEU A   1       9.306  -0.137  20.761  0.00  0.00    -0.274 OA
BRANCH   2   6
ATOM      6  CA  LEU A   1       6.968  -0.760  20.423  0.00  0.00    +0.138 C 
BRANCH   6   7
ATOM      7  N   LEU A   1       5.962  -1.469  21.240  0.00  0.00    -0.320 NA
ATOM      8  H1  LEU A   1       5.618  -0.818  21.948  0.00  0.00    +0.119 HD
ATOM      9  H2  LEU A   1       5.141  -1.624  20.647  0.00  0.00    +0.119 HD
ENDBRANCH   6   7
BRANCH   6  10
ATOM     10  CB  LEU A   1       6.510   0.669  20.090  0.00  0.00    +0.031 C 
BRANCH  10  11
ATOM     11  CG  LEU A   1       5.449   0.779  18.976  0.00  0.00    -0.015 C 
ATOM     12  CD2 LEU A   1       4.347   1.752  19.406  0.00  0.00    +0.007 C 
ATOM     13  CD1 LEU A   1       6.048   1.232  17.644  0.00  0.00    +0.007 C 
ENDBRANCH  10  11
ENDBRANCH   6  10
ENDBRANCH   2   6
ENDBRANCH   1   3
BRANCH   1  14
ATOM     14  C   GLN A   2       9.366  -2.726  24.072  0.00  0.00    +0.234 C 
ATOM     15  O   GLN A   2      10.301  -3.526  24.130  0.00  0.00    -0.274 OA
ATOM     16  N   ALA A   3       8.153  -2.957  24.667  0.00  0.00    -0.303 N 
ATOM     17  H   ALA A   3       7.398  -2.279  24.597  0.00  0.00    +0.149 HD
BRANCH  16  18
ATOM     18  CA  ALA A   3       7.847  -4.181  25.399  0.00  0.00    +0.156 C 
ATOM     19  CB  ALA A   3       7.052  -3.884  26.663  0.00  0.00    +0.038 C 
BRANCH  18  20
ATOM     20  C   ALA A   3       7.050  -5.095  24.450  0.00  0.00    +0.233 C 
ATOM     21  N   GLY A   4       7.612  -5.293  23.215  0.00  0.00    -0.307 N 
ATOM     22  H   GLY A   4       8.466  -4.813  22.939  0.00  0.00    +0.149 HD
ATOM     23  O   ALA A   3       5.985  -5.617  24.784  0.00  0.00    -0.274 OA
BRANCH  21  24
ATOM     24  CA  GLY A   4       6.961  -6.112  22.214  0.00  0.00    +0.175 C 
BRANCH  24  25
ATOM     25  C   GLY A   4       6.311  -5.230  21.171  0.00  0.00    +0.242 C 
ATOM     26  O   GLY A   4       5.508  -4.339  21.440  0.00  0.00    -0.299 OA
ENDBRANCH  24  25
ENDBRANCH  21  24
ENDBRANCH  18  20
ENDBRANCH  16  18
ENDBRANCH   1  14
BRANCH   1  27
ATOM     27  CB  GLN A   2       9.478  -0.188  24.213  0.00  0.00    +0.041 C 
BRANCH  27  28
ATOM     28  CG  GLN A   2      10.591   0.813  23.903  0.00  0.00    +0.098 C 
BRANCH  28  29
ATOM     29  CD  GLN A   2      10.081   2.112  23.317  0.00  0.00    +0.211 C 
ATOM     30  OE1 GLN A   2       9.475   2.948  23.980  0.00  0.00    -0.276 OA
ATOM     31  NE2 GLN A   2      10.252   2.286  21.978  0.00  0.00    -0.329 N 
ATOM     32 HE21 GLN A   2      10.811   1.679  21.397  0.00  0.00    +0.145 HD
ATOM     33 HE22 GLN A   2       9.932   3.163  21.584  0.00  0.00    +0.145 HD
ENDBRANCH  28  29
ENDBRANCH  27  28
ENDBRANCH   1  27
TORSDOF 13
ENDMDL
MODEL 5
REMARK VINA RESULT:      -6.5      1.888      5.880
REMARK  Name = LQAG-mmff94.pdb
REMARK  16 active torsions:
REMARK  status: ('A' for Active; 'I' for Inactive)
REMARK    1  A    between atoms: _1  and  _2
REMARK    2  A    between atoms: _2  and  _3
REMARK    3  A    between atoms: _2  and  _5
REMARK    4  A    between atoms: _5  and  _6
REMARK    5  A    between atoms: _6  and  _7
REMARK    6  A    between atoms: _6  and  _8
REMARK    7  A    between atoms: _20  and  _21
REMARK    8  A    between atoms: _21  and  _22
REMARK    9  A    between atoms: _21  and  _24
REMARK   10  A    between atoms: _24  and  _25
REMARK   11  A    between atoms: _25  and  _26
REMARK   12  A    between atoms: _37  and  _38
REMARK   13  A    between atoms: _38  and  _39
REMARK   14  A    between atoms: _38  and  _41
REMARK   15  A    between atoms: _47  and  _48
REMARK   16  A    between atoms: _48  and  _49
REMARK                            x       y       z     vdW  Elec       q    Type
REMARK                         _______ _______ _______ _____ _____    ______ ____
ROOT
ATOM      1  CA  GLN A   2       6.703  -0.979  22.416  0.00  0.00    +0.159 C 
ENDROOT
BRANCH   1   3
ATOM      2  C   LEU A   1       7.548   0.308  24.367  0.00  0.00    +0.230 C 
ATOM      3  N   GLN A   2       7.776  -0.523  23.300  0.00  0.00    -0.303 N 
ATOM      4  H   GLN A   2       8.717  -0.838  23.078  0.00  0.00    +0.149 HD
ATOM      5  O   LEU A   1       6.426   0.722  24.657  0.00  0.00    -0.274 OA
BRANCH   2   6
ATOM      6  CA  LEU A   1       8.815   0.700  25.163  0.00  0.00    +0.138 C 
BRANCH   6   7
ATOM      7  N   LEU A   1       8.968  -0.214  26.314  0.00  0.00    -0.320 NA
ATOM      8  H1  LEU A   1       9.968  -0.359  26.468  0.00  0.00    +0.119 HD
ATOM      9  H2  LEU A   1       8.676   0.299  27.152  0.00  0.00    +0.119 HD
ENDBRANCH   6   7
BRANCH   6  10
ATOM     10  CB  LEU A   1      10.047   0.651  24.245  0.00  0.00    +0.031 C 
BRANCH  10  11
ATOM     11  CG  LEU A   1      10.369   1.964  23.502  0.00  0.00    -0.015 C 
ATOM     12  CD2 LEU A   1      10.058   1.804  22.011  0.00  0.00    +0.007 C 
ATOM     13  CD1 LEU A   1       9.595   3.157  24.067  0.00  0.00    +0.007 C 
ENDBRANCH  10  11
ENDBRANCH   6  10
ENDBRANCH   2   6
ENDBRANCH   1   3
BRANCH   1  14
ATOM     14  C   GLN A   2       6.284  -2.372  22.923  0.00  0.00    +0.234 C 
ATOM     15  O   GLN A   2       5.351  -2.525  23.713  0.00  0.00    -0.274 OA
ATOM     16  N   ALA A   3       7.048  -3.414  22.465  0.00  0.00    -0.303 N 
ATOM     17  H   ALA A   3       7.816  -3.254  21.816  0.00  0.00    +0.149 HD
BRANCH  16  18
ATOM     18  CA  ALA A   3       6.846  -4.795  22.890  0.00  0.00    +0.156 C 
ATOM     19  CB  ALA A   3       7.233  -5.773  21.789  0.00  0.00    +0.038 C 
BRANCH  18  20
ATOM     20  C   ALA A   3       7.706  -5.016  24.149  0.00  0.00    +0.233 C 
ATOM     21  N   GLY A   4       7.101  -4.695  25.337  0.00  0.00    -0.307 N 
ATOM     22  H   GLY A   4       6.171  -4.282  25.363  0.00  0.00    +0.149 HD
ATOM     23  O   ALA A   3       8.853  -5.459  24.089  0.00  0.00    -0.274 OA
BRANCH  21  24
ATOM     24  CA  GLY A   4       7.799  -4.833  26.598  0.00  0.00    +0.175 C 
BRANCH  24  25
ATOM     25  C   GLY A   4       6.855  -5.372  27.651  0.00  0.00    +0.242 C 
ATOM     26  O   GLY A   4       7.110  -6.345  28.358  0.00  0.00    -0.299 OA
ENDBRANCH  24  25
ENDBRANCH  21  24
ENDBRANCH  18  20
ENDBRANCH  16  18
ENDBRANCH   1  14
BRANCH   1  27
ATOM     27  CB  GLN A   2       7.198  -1.031  20.963  0.00  0.00    +0.041 C 
BRANCH  27  28
ATOM     28  CG  GLN A   2       6.072  -1.020  19.929  0.00  0.00    +0.098 C 
BRANCH  28  29
ATOM     29  CD  GLN A   2       6.435  -0.280  18.659  0.00  0.00    +0.211 C 
ATOM     30  OE1 GLN A   2       7.568   0.127  18.428  0.00  0.00    -0.276 OA
ATOM     31  NE2 GLN A   2       5.415  -0.006  17.800  0.00  0.00    -0.329 N 
ATOM     32 HE21 GLN A   2       4.484  -0.384  17.891  0.00  0.00    +0.145 HD
ATOM     33 HE22 GLN A   2       5.656   0.469  16.938  0.00  0.00    +0.145 HD
ENDBRANCH  28  29
ENDBRANCH  27  28
ENDBRANCH   1  27
TORSDOF 13
ENDMDL
MODEL 6
REMARK VINA RESULT:      -6.5      2.275      6.088
REMARK  Name = LQAG-mmff94.pdb
REMARK  16 active torsions:
REMARK  status: ('A' for Active; 'I' for Inactive)
REMARK    1  A    between atoms: _1  and  _2
REMARK    2  A    between atoms: _2  and  _3
REMARK    3  A    between atoms: _2  and  _5
REMARK    4  A    between atoms: _5  and  _6
REMARK    5  A    between atoms: _6  and  _7
REMARK    6  A    between atoms: _6  and  _8
REMARK    7  A    between atoms: _20  and  _21
REMARK    8  A    between atoms: _21  and  _22
REMARK    9  A    between atoms: _21  and  _24
REMARK   10  A    between atoms: _24  and  _25
REMARK   11  A    between atoms: _25  and  _26
REMARK   12  A    between atoms: _37  and  _38
REMARK   13  A    between atoms: _38  and  _39
REMARK   14  A    between atoms: _38  and  _41
REMARK   15  A    between atoms: _47  and  _48
REMARK   16  A    between atoms: _48  and  _49
REMARK                            x       y       z     vdW  Elec       q    Type
REMARK                         _______ _______ _______ _____ _____    ______ ____
ROOT
ATOM      1  CA  GLN A   2       6.657  -1.306  21.619  0.00  0.00    +0.159 C 
ENDROOT
BRANCH   1   3
ATOM      2  C   LEU A   1       7.309  -1.034  24.002  0.00  0.00    +0.230 C 
ATOM      3  N   GLN A   2       7.546  -1.553  22.754  0.00  0.00    -0.303 N 
ATOM      4  H   GLN A   2       8.371  -2.119  22.574  0.00  0.00    +0.149 HD
ATOM      5  O   LEU A   1       6.330  -0.332  24.252  0.00  0.00    -0.274 OA
BRANCH   2   6
ATOM      6  CA  LEU A   1       8.381  -1.385  25.061  0.00  0.00    +0.138 C 
BRANCH   6   7
ATOM      7  N   LEU A   1       9.359  -2.322  24.472  0.00  0.00    -0.320 NA
ATOM      8  H1  LEU A   1      10.269  -1.855  24.455  0.00  0.00    +0.119 HD
ATOM      9  H2  LEU A   1       9.500  -3.080  25.145  0.00  0.00    +0.119 HD
ENDBRANCH   6   7
BRANCH   6  10
ATOM     10  CB  LEU A   1       9.067  -0.101  25.558  0.00  0.00    +0.031 C 
BRANCH  10  11
ATOM     11  CG  LEU A   1       9.595   0.835  24.452  0.00  0.00    -0.015 C 
ATOM     12  CD2 LEU A   1       9.034   2.245  24.658  0.00  0.00    +0.007 C 
ATOM     13  CD1 LEU A   1      11.123   0.887  24.414  0.00  0.00    +0.007 C 
ENDBRANCH  10  11
ENDBRANCH   6  10
ENDBRANCH   2   6
ENDBRANCH   1   3
BRANCH   1  14
ATOM     14  C   GLN A   2       6.152  -2.686  21.155  0.00  0.00    +0.234 C 
ATOM     15  O   GLN A   2       5.476  -2.824  20.135  0.00  0.00    -0.274 OA
ATOM     16  N   ALA A   3       6.476  -3.732  21.979  0.00  0.00    -0.303 N 
ATOM     17  H   ALA A   3       7.033  -3.585  22.818  0.00  0.00    +0.149 HD
BRANCH  16  18
ATOM     18  CA  ALA A   3       6.027  -5.100  21.741  0.00  0.00    +0.156 C 
ATOM     19  CB  ALA A   3       7.173  -6.091  21.899  0.00  0.00    +0.038 C 
BRANCH  18  20
ATOM     20  C   ALA A   3       4.902  -5.394  22.750  0.00  0.00    +0.233 C 
ATOM     21  N   GLY A   4       5.058  -6.539  23.489  0.00  0.00    -0.307 N 
ATOM     22  H   GLY A   4       5.839  -7.171  23.325  0.00  0.00    +0.149 HD
ATOM     23  O   ALA A   3       3.934  -4.645  22.888  0.00  0.00    -0.274 OA
BRANCH  21  24
ATOM     24  CA  GLY A   4       4.068  -6.950  24.461  0.00  0.00    +0.175 C 
BRANCH  24  25
ATOM     25  C   GLY A   4       4.673  -6.940  25.847  0.00  0.00    +0.242 C 
ATOM     26  O   GLY A   4       5.773  -6.453  26.104  0.00  0.00    -0.299 OA
ENDBRANCH  24  25
ENDBRANCH  21  24
ENDBRANCH  18  20
ENDBRANCH  16  18
ENDBRANCH   1  14
BRANCH   1  27
ATOM     27  CB  GLN A   2       7.413  -0.574  20.500  0.00  0.00    +0.041 C 
BRANCH  27  28
ATOM     28  CG  GLN A   2       6.610   0.552  19.849  0.00  0.00    +0.098 C 
BRANCH  28  29
ATOM     29  CD  GLN A   2       6.323   0.311  18.382  0.00  0.00    +0.211 C 
ATOM     30  OE1 GLN A   2       6.558   1.144  17.514  0.00  0.00    -0.276 OA
ATOM     31  NE2 GLN A   2       5.708  -0.861  18.065  0.00  0.00    -0.329 N 
ATOM     32 HE21 GLN A   2       5.566  -1.618  18.718  0.00  0.00    +0.145 HD
ATOM     33 HE22 GLN A   2       5.534  -1.037  17.083  0.00  0.00    +0.145 HD
ENDBRANCH  28  29
ENDBRANCH  27  28
ENDBRANCH   1  27
TORSDOF 13
ENDMDL
MODEL 7
REMARK VINA RESULT:      -6.5      2.136      6.586
REMARK  Name = LQAG-mmff94.pdb
REMARK  16 active torsions:
REMARK  status: ('A' for Active; 'I' for Inactive)
REMARK    1  A    between atoms: _1  and  _2
REMARK    2  A    between atoms: _2  and  _3
REMARK    3  A    between atoms: _2  and  _5
REMARK    4  A    between atoms: _5  and  _6
REMARK    5  A    between atoms: _6  and  _7
REMARK    6  A    between atoms: _6  and  _8
REMARK    7  A    between atoms: _20  and  _21
REMARK    8  A    between atoms: _21  and  _22
REMARK    9  A    between atoms: _21  and  _24
REMARK   10  A    between atoms: _24  and  _25
REMARK   11  A    between atoms: _25  and  _26
REMARK   12  A    between atoms: _37  and  _38
REMARK   13  A    between atoms: _38  and  _39
REMARK   14  A    between atoms: _38  and  _41
REMARK   15  A    between atoms: _47  and  _48
REMARK   16  A    between atoms: _48  and  _49
REMARK                            x       y       z     vdW  Elec       q    Type
REMARK                         _______ _______ _______ _____ _____    ______ ____
ROOT
ATOM      1  CA  GLN A   2       6.206  -1.416  21.019  0.00  0.00    +0.159 C 
ENDROOT
BRANCH   1   3
ATOM      2  C   LEU A   1       7.995   0.136  21.772  0.00  0.00    +0.230 C 
ATOM      3  N   GLN A   2       7.608  -1.015  21.134  0.00  0.00    -0.303 N 
ATOM      4  H   GLN A   2       8.296  -1.625  20.699  0.00  0.00    +0.149 HD
ATOM      5  O   LEU A   1       7.191   0.906  22.296  0.00  0.00    -0.274 OA
BRANCH   2   6
ATOM      6  CA  LEU A   1       9.520   0.399  21.762  0.00  0.00    +0.138 C 
BRANCH   6   7
ATOM      7  N   LEU A   1       9.766   1.819  21.436  0.00  0.00    -0.320 NA
ATOM      8  H1  LEU A   1       8.863   2.260  21.254  0.00  0.00    +0.119 HD
ATOM      9  H2  LEU A   1      10.081   2.279  22.295  0.00  0.00    +0.119 HD
ENDBRANCH   6   7
BRANCH   6  10
ATOM     10  CB  LEU A   1      10.125   0.027  23.125  0.00  0.00    +0.031 C 
BRANCH  10  11
ATOM     11  CG  LEU A   1       9.332  -1.019  23.935  0.00  0.00    -0.015 C 
ATOM     12  CD2 LEU A   1       9.985  -2.396  23.782  0.00  0.00    +0.007 C 
ATOM     13  CD1 LEU A   1       9.235  -0.656  25.418  0.00  0.00    +0.007 C 
ENDBRANCH  10  11
ENDBRANCH   6  10
ENDBRANCH   2   6
ENDBRANCH   1   3
BRANCH   1  14
ATOM     14  C   GLN A   2       6.124  -2.864  21.542  0.00  0.00    +0.234 C 
ATOM     15  O   GLN A   2       5.577  -3.760  20.898  0.00  0.00    -0.274 OA
ATOM     16  N   ALA A   3       6.666  -3.066  22.785  0.00  0.00    -0.303 N 
ATOM     17  H   ALA A   3       7.108  -2.303  23.294  0.00  0.00    +0.149 HD
BRANCH  16  18
ATOM     18  CA  ALA A   3       6.621  -4.352  23.472  0.00  0.00    +0.156 C 
ATOM     19  CB  ALA A   3       7.687  -5.300  22.938  0.00  0.00    +0.038 C 
BRANCH  18  20
ATOM     20  C   ALA A   3       6.831  -4.077  24.972  0.00  0.00    +0.233 C 
ATOM     21  N   GLY A   4       7.344  -5.122  25.696  0.00  0.00    -0.307 N 
ATOM     22  H   GLY A   4       7.511  -6.030  25.268  0.00  0.00    +0.149 HD
ATOM     23  O   ALA A   3       6.563  -2.988  25.482  0.00  0.00    -0.274 OA
BRANCH  21  24
ATOM     24  CA  GLY A   4       7.574  -5.010  27.121  0.00  0.00    +0.175 C 
BRANCH  24  25
ATOM     25  C   GLY A   4       6.482  -5.738  27.876  0.00  0.00    +0.242 C 
ATOM     26  O   GLY A   4       6.697  -6.669  28.649  0.00  0.00    -0.299 OA
ENDBRANCH  24  25
ENDBRANCH  21  24
ENDBRANCH  18  20
ENDBRANCH  16  18
ENDBRANCH   1  14
BRANCH   1  27
ATOM     27  CB  GLN A   2       5.741  -1.314  19.559  0.00  0.00    +0.041 C 
BRANCH  27  28
ATOM     28  CG  GLN A   2       5.354   0.102  19.134  0.00  0.00    +0.098 C 
BRANCH  28  29
ATOM     29  CD  GLN A   2       6.346   0.732  18.180  0.00  0.00    +0.211 C 
ATOM     30  OE1 GLN A   2       7.543   0.464  18.194  0.00  0.00    -0.276 OA
ATOM     31  NE2 GLN A   2       5.863   1.687  17.340  0.00  0.00    -0.329 N 
ATOM     32 HE21 GLN A   2       4.882   1.890  17.222  0.00  0.00    +0.145 HD
ATOM     33 HE22 GLN A   2       6.518   2.095  16.684  0.00  0.00    +0.145 HD
ENDBRANCH  28  29
ENDBRANCH  27  28
ENDBRANCH   1  27
TORSDOF 13
ENDMDL
MODEL 8
REMARK VINA RESULT:      -6.4      2.304      5.611
REMARK  Name = LQAG-mmff94.pdb
REMARK  16 active torsions:
REMARK  status: ('A' for Active; 'I' for Inactive)
REMARK    1  A    between atoms: _1  and  _2
REMARK    2  A    between atoms: _2  and  _3
REMARK    3  A    between atoms: _2  and  _5
REMARK    4  A    between atoms: _5  and  _6
REMARK    5  A    between atoms: _6  and  _7
REMARK    6  A    between atoms: _6  and  _8
REMARK    7  A    between atoms: _20  and  _21
REMARK    8  A    between atoms: _21  and  _22
REMARK    9  A    between atoms: _21  and  _24
REMARK   10  A    between atoms: _24  and  _25
REMARK   11  A    between atoms: _25  and  _26
REMARK   12  A    between atoms: _37  and  _38
REMARK   13  A    between atoms: _38  and  _39
REMARK   14  A    between atoms: _38  and  _41
REMARK   15  A    between atoms: _47  and  _48
REMARK   16  A    between atoms: _48  and  _49
REMARK                            x       y       z     vdW  Elec       q    Type
REMARK                         _______ _______ _______ _____ _____    ______ ____
ROOT
ATOM      1  CA  GLN A   2       7.436  -3.342  22.986  0.00  0.00    +0.159 C 
ENDROOT
BRANCH   1   3
ATOM      2  C   LEU A   1       8.117  -5.010  24.698  0.00  0.00    +0.230 C 
ATOM      3  N   GLN A   2       7.440  -3.869  24.351  0.00  0.00    -0.303 N 
ATOM      4  H   GLN A   2       6.896  -3.356  25.040  0.00  0.00    +0.149 HD
ATOM      5  O   LEU A   1       8.772  -5.664  23.887  0.00  0.00    -0.274 OA
BRANCH   2   6
ATOM      6  CA  LEU A   1       7.975  -5.419  26.183  0.00  0.00    +0.138 C 
BRANCH   6   7
ATOM      7  N   LEU A   1       9.039  -4.765  26.972  0.00  0.00    -0.320 NA
ATOM      8  H1  LEU A   1       8.932  -5.058  27.946  0.00  0.00    +0.119 HD
ATOM      9  H2  LEU A   1       9.928  -5.192  26.698  0.00  0.00    +0.119 HD
ENDBRANCH   6   7
BRANCH   6  10
ATOM     10  CB  LEU A   1       6.579  -5.034  26.702  0.00  0.00    +0.031 C 
BRANCH  10  11
ATOM     11  CG  LEU A   1       5.472  -6.080  26.457  0.00  0.00    -0.015 C 
ATOM     12  CD2 LEU A   1       5.088  -6.745  27.782  0.00  0.00    +0.007 C 
ATOM     13  CD1 LEU A   1       4.230  -5.472  25.804  0.00  0.00    +0.007 C 
ENDBRANCH  10  11
ENDBRANCH   6  10
ENDBRANCH   2   6
ENDBRANCH   1   3
BRANCH   1  14
ATOM     14  C   GLN A   2       8.060  -1.935  23.062  0.00  0.00    +0.234 C 
ATOM     15  O   GLN A   2       8.897  -1.637  23.915  0.00  0.00    -0.274 OA
ATOM     16  N   ALA A   3       7.585  -1.036  22.141  0.00  0.00    -0.303 N 
ATOM     17  H   ALA A   3       6.890  -1.312  21.451  0.00  0.00    +0.149 HD
BRANCH  16  18
ATOM     18  CA  ALA A   3       8.005   0.360  22.103  0.00  0.00    +0.156 C 
ATOM     19  CB  ALA A   3       9.408   0.498  21.527  0.00  0.00    +0.038 C 
BRANCH  18  20
ATOM     20  C   ALA A   3       6.980   1.123  21.244  0.00  0.00    +0.233 C 
ATOM     21  N   GLY A   4       6.332   0.372  20.296  0.00  0.00    -0.307 N 
ATOM     22  H   GLY A   4       6.569  -0.606  20.144  0.00  0.00    +0.149 HD
ATOM     23  O   ALA A   3       6.753   2.323  21.406  0.00  0.00    -0.274 OA
BRANCH  21  24
ATOM     24  CA  GLY A   4       5.357   0.964  19.405  0.00  0.00    +0.175 C 
BRANCH  24  25
ATOM     25  C   GLY A   4       5.731   0.670  17.968  0.00  0.00    +0.242 C 
ATOM     26  O   GLY A   4       5.944  -0.463  17.540  0.00  0.00    -0.299 OA
ENDBRANCH  24  25
ENDBRANCH  21  24
ENDBRANCH  18  20
ENDBRANCH  16  18
ENDBRANCH   1  14
BRANCH   1  27
ATOM     27  CB  GLN A   2       6.003  -3.297  22.437  0.00  0.00    +0.041 C 
BRANCH  27  28
ATOM     28  CG  GLN A   2       5.331  -4.668  22.358  0.00  0.00    +0.098 C 
BRANCH  28  29
ATOM     29  CD  GLN A   2       6.011  -5.611  21.389  0.00  0.00    +0.211 C 
ATOM     30  OE1 GLN A   2       6.003  -5.437  20.175  0.00  0.00    -0.276 OA
ATOM     31  NE2 GLN A   2       6.576  -6.729  21.921  0.00  0.00    -0.329 N 
ATOM     32 HE21 GLN A   2       6.689  -6.887  22.912  0.00  0.00    +0.145 HD
ATOM     33 HE22 GLN A   2       7.052  -7.353  21.280  0.00  0.00    +0.145 HD
ENDBRANCH  28  29
ENDBRANCH  27  28
ENDBRANCH   1  27
TORSDOF 13
ENDMDL
MODEL 9
REMARK VINA RESULT:      -6.4      2.547      6.228
REMARK  Name = LQAG-mmff94.pdb
REMARK  16 active torsions:
REMARK  status: ('A' for Active; 'I' for Inactive)
REMARK    1  A    between atoms: _1  and  _2
REMARK    2  A    between atoms: _2  and  _3
REMARK    3  A    between atoms: _2  and  _5
REMARK    4  A    between atoms: _5  and  _6
REMARK    5  A    between atoms: _6  and  _7
REMARK    6  A    between atoms: _6  and  _8
REMARK    7  A    between atoms: _20  and  _21
REMARK    8  A    between atoms: _21  and  _22
REMARK    9  A    between atoms: _21  and  _24
REMARK   10  A    between atoms: _24  and  _25
REMARK   11  A    between atoms: _25  and  _26
REMARK   12  A    between atoms: _37  and  _38
REMARK   13  A    between atoms: _38  and  _39
REMARK   14  A    between atoms: _38  and  _41
REMARK   15  A    between atoms: _47  and  _48
REMARK   16  A    between atoms: _48  and  _49
REMARK                            x       y       z     vdW  Elec       q    Type
REMARK                         _______ _______ _______ _____ _____    ______ ____
ROOT
ATOM      1  CA  GLN A   2       7.555   0.181  21.240  0.00  0.00    +0.159 C 
ENDROOT
BRANCH   1   3
ATOM      2  C   LEU A   1       7.010   2.535  21.824  0.00  0.00    +0.230 C 
ATOM      3  N   GLN A   2       7.929   1.528  21.671  0.00  0.00    -0.303 N 
ATOM      4  H   GLN A   2       8.918   1.697  21.838  0.00  0.00    +0.149 HD
ATOM      5  O   LEU A   1       5.808   2.372  21.616  0.00  0.00    -0.274 OA
BRANCH   2   6
ATOM      6  CA  LEU A   1       7.607   3.894  22.259  0.00  0.00    +0.138 C 
BRANCH   6   7
ATOM      7  N   LEU A   1       6.657   4.973  21.921  0.00  0.00    -0.320 NA
ATOM      8  H1  LEU A   1       6.453   4.909  20.921  0.00  0.00    +0.119 HD
ATOM      9  H2  LEU A   1       5.760   4.739  22.356  0.00  0.00    +0.119 HD
ENDBRANCH   6   7
BRANCH   6  10
ATOM     10  CB  LEU A   1       7.914   3.874  23.766  0.00  0.00    +0.031 C 
BRANCH  10  11
ATOM     11  CG  LEU A   1       9.354   4.271  24.151  0.00  0.00    -0.015 C 
ATOM     12  CD2 LEU A   1      10.348   3.307  23.497  0.00  0.00    +0.007 C 
ATOM     13  CD1 LEU A   1       9.688   5.709  23.751  0.00  0.00    +0.007 C 
ENDBRANCH  10  11
ENDBRANCH   6  10
ENDBRANCH   2   6
ENDBRANCH   1   3
BRANCH   1  14
ATOM     14  C   GLN A   2       8.547  -0.783  21.918  0.00  0.00    +0.234 C 
ATOM     15  O   GLN A   2       9.729  -0.849  21.577  0.00  0.00    -0.274 OA
ATOM     16  N   ALA A   3       8.009  -1.584  22.892  0.00  0.00    -0.303 N 
ATOM     17  H   ALA A   3       7.027  -1.509  23.148  0.00  0.00    +0.149 HD
BRANCH  16  18
ATOM     18  CA  ALA A   3       8.777  -2.606  23.595  0.00  0.00    +0.156 C 
ATOM     19  CB  ALA A   3       8.925  -2.265  25.072  0.00  0.00    +0.038 C 
BRANCH  18  20
ATOM     20  C   ALA A   3       8.036  -3.943  23.411  0.00  0.00    +0.233 C 
ATOM     21  N   GLY A   4       6.838  -3.865  22.747  0.00  0.00    -0.307 N 
ATOM     22  H   GLY A   4       6.452  -2.969  22.458  0.00  0.00    +0.149 HD
ATOM     23  O   ALA A   3       8.494  -5.009  23.824  0.00  0.00    -0.274 OA
BRANCH  21  24
ATOM     24  CA  GLY A   4       6.024  -5.040  22.520  0.00  0.00    +0.175 C 
BRANCH  24  25
ATOM     25  C   GLY A   4       6.380  -5.662  21.187  0.00  0.00    +0.242 C 
ATOM     26  O   GLY A   4       5.938  -5.261  20.112  0.00  0.00    -0.299 OA
ENDBRANCH  24  25
ENDBRANCH  21  24
ENDBRANCH  18  20
ENDBRANCH  16  18
ENDBRANCH   1  14
BRANCH   1  27
ATOM     27  CB  GLN A   2       7.618   0.075  19.709  0.00  0.00    +0.041 C 
BRANCH  27  28
ATOM     28  CG  GLN A   2       6.258  -0.162  19.052  0.00  0.00    +0.098 C 
BRANCH  28  29
ATOM     29  CD  GLN A   2       5.755   1.034  18.272  0.00  0.00    +0.211 C 
ATOM     30  OE1 GLN A   2       6.287   1.423  17.238  0.00  0.00    -0.276 OA
ATOM     31  NE2 GLN A   2       4.717   1.724  18.816  0.00  0.00    -0.329 N 
ATOM     32 HE21 GLN A   2       4.186   1.408  19.614  0.00  0.00    +0.145 HD
ATOM     33 HE22 GLN A   2       4.362   2.512  18.287  0.00  0.00    +0.145 HD
ENDBRANCH  28  29
ENDBRANCH  27  28
ENDBRANCH   1  27
TORSDOF 13
ENDMDL
MODEL 10
REMARK VINA RESULT:      -6.4      1.921      5.889
REMARK  Name = LQAG-mmff94.pdb
REMARK  16 active torsions:
REMARK  status: ('A' for Active; 'I' for Inactive)
REMARK    1  A    between atoms: _1  and  _2
REMARK    2  A    between atoms: _2  and  _3
REMARK    3  A    between atoms: _2  and  _5
REMARK    4  A    between atoms: _5  and  _6
REMARK    5  A    between atoms: _6  and  _7
REMARK    6  A    between atoms: _6  and  _8
REMARK    7  A    between atoms: _20  and  _21
REMARK    8  A    between atoms: _21  and  _22
REMARK    9  A    between atoms: _21  and  _24
REMARK   10  A    between atoms: _24  and  _25
REMARK   11  A    between atoms: _25  and  _26
REMARK   12  A    between atoms: _37  and  _38
REMARK   13  A    between atoms: _38  and  _39
REMARK   14  A    between atoms: _38  and  _41
REMARK   15  A    between atoms: _47  and  _48
REMARK   16  A    between atoms: _48  and  _49
REMARK                            x       y       z     vdW  Elec       q    Type
REMARK                         _______ _______ _______ _____ _____    ______ ____
ROOT
ATOM      1  CA  GLN A   2       6.747  -1.003  21.609  0.00  0.00    +0.159 C 
ENDROOT
BRANCH   1   3
ATOM      2  C   LEU A   1       7.328  -0.272  23.913  0.00  0.00    +0.230 C 
ATOM      3  N   GLN A   2       7.641  -0.958  22.766  0.00  0.00    -0.303 N 
ATOM      4  H   GLN A   2       8.527  -1.449  22.680  0.00  0.00    +0.149 HD
ATOM      5  O   LEU A   1       6.272   0.346  24.047  0.00  0.00    -0.274 OA
BRANCH   2   6
ATOM      6  CA  LEU A   1       8.415  -0.320  25.012  0.00  0.00    +0.138 C 
BRANCH   6   7
ATOM      7  N   LEU A   1       8.881  -1.713  25.175  0.00  0.00    -0.320 NA
ATOM      8  H1  LEU A   1       9.383  -1.977  24.325  0.00  0.00    +0.119 HD
ATOM      9  H2  LEU A   1       9.617  -1.708  25.887  0.00  0.00    +0.119 HD
ENDBRANCH   6   7
BRANCH   6  10
ATOM     10  CB  LEU A   1       9.577   0.617  24.642  0.00  0.00    +0.031 C 
BRANCH  10  11
ATOM     11  CG  LEU A   1       9.228   1.735  23.638  0.00  0.00    -0.015 C 
ATOM     12  CD2 LEU A   1       9.359   3.100  24.321  0.00  0.00    +0.007 C 
ATOM     13  CD1 LEU A   1      10.112   1.694  22.391  0.00  0.00    +0.007 C 
ENDBRANCH  10  11
ENDBRANCH   6  10
ENDBRANCH   2   6
ENDBRANCH   1   3
BRANCH   1  14
ATOM     14  C   GLN A   2       6.257  -2.460  21.495  0.00  0.00    +0.234 C 
ATOM     15  O   GLN A   2       5.521  -2.831  20.581  0.00  0.00    -0.274 OA
ATOM     16  N   ALA A   3       6.668  -3.293  22.504  0.00  0.00    -0.303 N 
ATOM     17  H   ALA A   3       7.273  -2.955  23.249  0.00  0.00    +0.149 HD
BRANCH  16  18
ATOM     18  CA  ALA A   3       6.248  -4.687  22.603  0.00  0.00    +0.156 C 
ATOM     19  CB  ALA A   3       7.256  -5.614  21.936  0.00  0.00    +0.038 C 
BRANCH  18  20
ATOM     20  C   ALA A   3       6.106  -5.016  24.101  0.00  0.00    +0.233 C 
ATOM     21  N   GLY A   4       6.685  -4.116  24.959  0.00  0.00    -0.307 N 
ATOM     22  H   GLY A   4       7.221  -3.324  24.611  0.00  0.00    +0.149 HD
ATOM     23  O   ALA A   3       5.504  -6.015  24.498  0.00  0.00    -0.274 OA
BRANCH  21  24
ATOM     24  CA  GLY A   4       6.646  -4.310  26.392  0.00  0.00    +0.175 C 
BRANCH  24  25
ATOM     25  C   GLY A   4       7.930  -4.960  26.858  0.00  0.00    +0.242 C 
ATOM     26  O   GLY A   4       9.017  -4.384  26.872  0.00  0.00    -0.299 OA
ENDBRANCH  24  25
ENDBRANCH  21  24
ENDBRANCH  18  20
ENDBRANCH  16  18
ENDBRANCH   1  14
BRANCH   1  27
ATOM     27  CB  GLN A   2       7.493  -0.556  20.343  0.00  0.00    +0.041 C 
BRANCH  27  28
ATOM     28  CG  GLN A   2       6.866   0.657  19.656  0.00  0.00    +0.098 C 
BRANCH  28  29
ATOM     29  CD  GLN A   2       6.275   0.336  18.300  0.00  0.00    +0.211 C 
ATOM     30  OE1 GLN A   2       6.199   1.162  17.397  0.00  0.00    -0.276 OA
ATOM     31  NE2 GLN A   2       5.748  -0.908  18.143  0.00  0.00    -0.329 N 
ATOM     32 HE21 GLN A   2       5.854  -1.654  18.814  0.00  0.00    +0.145 HD
ATOM     33 HE22 GLN A   2       5.371  -1.136  17.231  0.00  0.00    +0.145 HD
ENDBRANCH  28  29
ENDBRANCH  27  28
ENDBRANCH   1  27
TORSDOF 13
ENDMDL
MODEL 11
REMARK VINA RESULT:      -6.4      1.961      5.447
REMARK  Name = LQAG-mmff94.pdb
REMARK  16 active torsions:
REMARK  status: ('A' for Active; 'I' for Inactive)
REMARK    1  A    between atoms: _1  and  _2
REMARK    2  A    between atoms: _2  and  _3
REMARK    3  A    between atoms: _2  and  _5
REMARK    4  A    between atoms: _5  and  _6
REMARK    5  A    between atoms: _6  and  _7
REMARK    6  A    between atoms: _6  and  _8
REMARK    7  A    between atoms: _20  and  _21
REMARK    8  A    between atoms: _21  and  _22
REMARK    9  A    between atoms: _21  and  _24
REMARK   10  A    between atoms: _24  and  _25
REMARK   11  A    between atoms: _25  and  _26
REMARK   12  A    between atoms: _37  and  _38
REMARK   13  A    between atoms: _38  and  _39
REMARK   14  A    between atoms: _38  and  _41
REMARK   15  A    between atoms: _47  and  _48
REMARK   16  A    between atoms: _48  and  _49
REMARK                            x       y       z     vdW  Elec       q    Type
REMARK                         _______ _______ _______ _____ _____    ______ ____
ROOT
ATOM      1  CA  GLN A   2       7.667  -3.169  22.512  0.00  0.00    +0.159 C 
ENDROOT
BRANCH   1   3
ATOM      2  C   LEU A   1       8.481  -4.314  24.563  0.00  0.00    +0.230 C 
ATOM      3  N   GLN A   2       7.999  -3.193  23.937  0.00  0.00    -0.303 N 
ATOM      4  H   GLN A   2       7.838  -2.335  24.458  0.00  0.00    +0.149 HD
ATOM      5  O   LEU A   1       8.673  -5.374  23.968  0.00  0.00    -0.274 OA
BRANCH   2   6
ATOM      6  CA  LEU A   1       8.744  -4.146  26.078  0.00  0.00    +0.138 C 
BRANCH   6   7
ATOM      7  N   LEU A   1       8.529  -2.734  26.455  0.00  0.00    -0.320 NA
ATOM      8  H1  LEU A   1       8.701  -2.158  25.629  0.00  0.00    +0.119 HD
ATOM      9  H2  LEU A   1       7.525  -2.611  26.618  0.00  0.00    +0.119 HD
ENDBRANCH   6   7
BRANCH   6  10
ATOM     10  CB  LEU A   1       7.824  -5.083  26.877  0.00  0.00    +0.031 C 
BRANCH  10  11
ATOM     11  CG  LEU A   1       6.312  -4.831  26.701  0.00  0.00    -0.015 C 
ATOM     12  CD2 LEU A   1       5.658  -6.053  26.049  0.00  0.00    +0.007 C 
ATOM     13  CD1 LEU A   1       5.616  -4.518  28.027  0.00  0.00    +0.007 C 
ENDBRANCH  10  11
ENDBRANCH   6  10
ENDBRANCH   2   6
ENDBRANCH   1   3
BRANCH   1  14
ATOM     14  C   GLN A   2       8.449  -1.989  21.903  0.00  0.00    +0.234 C 
ATOM     15  O   GLN A   2       9.618  -1.753  22.210  0.00  0.00    -0.274 OA
ATOM     16  N   ALA A   3       7.735  -1.205  21.033  0.00  0.00    -0.303 N 
ATOM     17  H   ALA A   3       6.769  -1.424  20.803  0.00  0.00    +0.149 HD
BRANCH  16  18
ATOM     18  CA  ALA A   3       8.285  -0.005  20.412  0.00  0.00    +0.156 C 
ATOM     19  CB  ALA A   3       7.370   0.514  19.311  0.00  0.00    +0.038 C 
BRANCH  18  20
ATOM     20  C   ALA A   3       8.459   1.046  21.524  0.00  0.00    +0.233 C 
ATOM     21  N   GLY A   4       9.755   1.398  21.803  0.00  0.00    -0.307 N 
ATOM     22  H   GLY A   4      10.538   0.941  21.341  0.00  0.00    +0.149 HD
ATOM     23  O   ALA A   3       7.498   1.541  22.114  0.00  0.00    -0.274 OA
BRANCH  21  24
ATOM     24  CA  GLY A   4      10.068   2.360  22.839  0.00  0.00    +0.175 C 
BRANCH  24  25
ATOM     25  C   GLY A   4      10.404   1.638  24.126  0.00  0.00    +0.242 C 
ATOM     26  O   GLY A   4      11.077   0.610  24.172  0.00  0.00    -0.299 OA
ENDBRANCH  24  25
ENDBRANCH  21  24
ENDBRANCH  18  20
ENDBRANCH  16  18
ENDBRANCH   1  14
BRANCH   1  27
ATOM     27  CB  GLN A   2       6.153  -3.004  22.321  0.00  0.00    +0.041 C 
BRANCH  27  28
ATOM     28  CG  GLN A   2       5.365  -4.303  22.495  0.00  0.00    +0.098 C 
BRANCH  28  29
ATOM     29  CD  GLN A   2       5.900  -5.443  21.655  0.00  0.00    +0.211 C 
ATOM     30  OE1 GLN A   2       5.976  -5.388  20.432  0.00  0.00    -0.276 OA
ATOM     31  NE2 GLN A   2       6.227  -6.587  22.315  0.00  0.00    -0.329 N 
ATOM     32 HE21 GLN A   2       6.267  -6.665  23.321  0.00  0.00    +0.145 HD
ATOM     33 HE22 GLN A   2       6.607  -7.345  21.761  0.00  0.00    +0.145 HD
ENDBRANCH  28  29
ENDBRANCH  27  28
ENDBRANCH   1  27
TORSDOF 13
ENDMDL
MODEL 12
REMARK VINA RESULT:      -6.4      2.878      7.200
REMARK  Name = LQAG-mmff94.pdb
REMARK  16 active torsions:
REMARK  status: ('A' for Active; 'I' for Inactive)
REMARK    1  A    between atoms: _1  and  _2
REMARK    2  A    between atoms: _2  and  _3
REMARK    3  A    between atoms: _2  and  _5
REMARK    4  A    between atoms: _5  and  _6
REMARK    5  A    between atoms: _6  and  _7
REMARK    6  A    between atoms: _6  and  _8
REMARK    7  A    between atoms: _20  and  _21
REMARK    8  A    between atoms: _21  and  _22
REMARK    9  A    between atoms: _21  and  _24
REMARK   10  A    between atoms: _24  and  _25
REMARK   11  A    between atoms: _25  and  _26
REMARK   12  A    between atoms: _37  and  _38
REMARK   13  A    between atoms: _38  and  _39
REMARK   14  A    between atoms: _38  and  _41
REMARK   15  A    between atoms: _47  and  _48
REMARK   16  A    between atoms: _48  and  _49
REMARK                            x       y       z     vdW  Elec       q    Type
REMARK                         _______ _______ _______ _____ _____    ______ ____
ROOT
ATOM      1  CA  GLN A   2       9.881   0.413  22.399  0.00  0.00    +0.159 C 
ENDROOT
BRANCH   1   3
ATOM      2  C   LEU A   1       9.814  -1.942  23.191  0.00  0.00    +0.230 C 
ATOM      3  N   GLN A   2       9.264  -0.686  23.140  0.00  0.00    -0.303 N 
ATOM      4  H   GLN A   2       8.385  -0.485  23.611  0.00  0.00    +0.149 HD
ATOM      5  O   LEU A   1      10.867  -2.226  22.621  0.00  0.00    -0.274 OA
BRANCH   2   6
ATOM      6  CA  LEU A   1       8.996  -2.974  24.003  0.00  0.00    +0.138 C 
BRANCH   6   7
ATOM      7  N   LEU A   1       8.503  -2.338  25.241  0.00  0.00    -0.320 NA
ATOM      8  H1  LEU A   1       8.434  -1.333  25.071  0.00  0.00    +0.119 HD
ATOM      9  H2  LEU A   1       7.525  -2.620  25.361  0.00  0.00    +0.119 HD
ENDBRANCH   6   7
BRANCH   6  10
ATOM     10  CB  LEU A   1       7.835  -3.510  23.149  0.00  0.00    +0.031 C 
BRANCH  10  11
ATOM     11  CG  LEU A   1       7.553  -5.020  23.292  0.00  0.00    -0.015 C 
ATOM     12  CD2 LEU A   1       6.422  -5.241  24.301  0.00  0.00    +0.007 C 
ATOM     13  CD1 LEU A   1       7.191  -5.674  21.958  0.00  0.00    +0.007 C 
ENDBRANCH  10  11
ENDBRANCH   6  10
ENDBRANCH   2   6
ENDBRANCH   1   3
BRANCH   1  14
ATOM     14  C   GLN A   2      10.250   1.487  23.440  0.00  0.00    +0.234 C 
ATOM     15  O   GLN A   2      10.298   1.238  24.645  0.00  0.00    -0.274 OA
ATOM     16  N   ALA A   3      10.479   2.739  22.930  0.00  0.00    -0.303 N 
ATOM     17  H   ALA A   3      10.427   2.914  21.930  0.00  0.00    +0.149 HD
BRANCH  16  18
ATOM     18  CA  ALA A   3      10.772   3.897  23.769  0.00  0.00    +0.156 C 
ATOM     19  CB  ALA A   3      11.947   4.693  23.217  0.00  0.00    +0.038 C 
BRANCH  18  20
ATOM     20  C   ALA A   3       9.498   4.759  23.819  0.00  0.00    +0.233 C 
ATOM     21  N   GLY A   4       8.643   4.609  22.756  0.00  0.00    -0.307 N 
ATOM     22  H   GLY A   4       8.880   4.010  21.968  0.00  0.00    +0.149 HD
ATOM     23  O   ALA A   3       9.261   5.524  24.755  0.00  0.00    -0.274 OA
BRANCH  21  24
ATOM     24  CA  GLY A   4       7.417   5.372  22.662  0.00  0.00    +0.175 C 
BRANCH  24  25
ATOM     25  C   GLY A   4       6.230   4.435  22.619  0.00  0.00    +0.242 C 
ATOM     26  O   GLY A   4       6.243   3.349  22.041  0.00  0.00    -0.299 OA
ENDBRANCH  24  25
ENDBRANCH  21  24
ENDBRANCH  18  20
ENDBRANCH  16  18
ENDBRANCH   1  14
BRANCH   1  27
ATOM     27  CB  GLN A   2       8.905   0.958  21.345  0.00  0.00    +0.041 C 
BRANCH  27  28
ATOM     28  CG  GLN A   2       8.318  -0.120  20.434  0.00  0.00    +0.098 C 
BRANCH  28  29
ATOM     29  CD  GLN A   2       7.234   0.401  19.514  0.00  0.00    +0.211 C 
ATOM     30  OE1 GLN A   2       7.362   0.444  18.295  0.00  0.00    -0.276 OA
ATOM     31  NE2 GLN A   2       6.120   0.906  20.109  0.00  0.00    -0.329 N 
ATOM     32 HE21 GLN A   2       5.920   0.824  21.095  0.00  0.00    +0.145 HD
ATOM     33 HE22 GLN A   2       5.382   1.235  19.498  0.00  0.00    +0.145 HD
ENDBRANCH  28  29
ENDBRANCH  27  28
ENDBRANCH   1  27
TORSDOF 13
ENDMDL
MODEL 13
REMARK VINA RESULT:      -6.4      2.603      6.462
REMARK  Name = LQAG-mmff94.pdb
REMARK  16 active torsions:
REMARK  status: ('A' for Active; 'I' for Inactive)
REMARK    1  A    between atoms: _1  and  _2
REMARK    2  A    between atoms: _2  and  _3
REMARK    3  A    between atoms: _2  and  _5
REMARK    4  A    between atoms: _5  and  _6
REMARK    5  A    between atoms: _6  and  _7
REMARK    6  A    between atoms: _6  and  _8
REMARK    7  A    between atoms: _20  and  _21
REMARK    8  A    between atoms: _21  and  _22
REMARK    9  A    between atoms: _21  and  _24
REMARK   10  A    between atoms: _24  and  _25
REMARK   11  A    between atoms: _25  and  _26
REMARK   12  A    between atoms: _37  and  _38
REMARK   13  A    between atoms: _38  and  _39
REMARK   14  A    between atoms: _38  and  _41
REMARK   15  A    between atoms: _47  and  _48
REMARK   16  A    between atoms: _48  and  _49
REMARK                            x       y       z     vdW  Elec       q    Type
REMARK                         _______ _______ _______ _____ _____    ______ ____
ROOT
ATOM      1  CA  GLN A   2       7.381  -0.132  20.969  0.00  0.00    +0.159 C 
ENDROOT
BRANCH   1   3
ATOM      2  C   LEU A   1       7.169   2.231  21.713  0.00  0.00    +0.230 C 
ATOM      3  N   GLN A   2       7.927   1.100  21.538  0.00  0.00    -0.303 N 
ATOM      4  H   GLN A   2       8.912   1.092  21.787  0.00  0.00    +0.149 HD
ATOM      5  O   LEU A   1       5.978   2.283  21.408  0.00  0.00    -0.274 OA
BRANCH   2   6
ATOM      6  CA  LEU A   1       7.936   3.438  22.302  0.00  0.00    +0.138 C 
BRANCH   6   7
ATOM      7  N   LEU A   1       7.260   4.688  21.898  0.00  0.00    -0.320 NA
ATOM      8  H1  LEU A   1       6.381   4.436  21.442  0.00  0.00    +0.119 HD
ATOM      9  H2  LEU A   1       6.951   5.159  22.754  0.00  0.00    +0.119 HD
ENDBRANCH   6   7
BRANCH   6  10
ATOM     10  CB  LEU A   1       8.011   3.314  23.833  0.00  0.00    +0.031 C 
BRANCH  10  11
ATOM     11  CG  LEU A   1       9.357   2.805  24.389  0.00  0.00    -0.015 C 
ATOM     12  CD2 LEU A   1       9.228   1.330  24.782  0.00  0.00    +0.007 C 
ATOM     13  CD1 LEU A   1      10.501   2.974  23.388  0.00  0.00    +0.007 C 
ENDBRANCH  10  11
ENDBRANCH   6  10
ENDBRANCH   2   6
ENDBRANCH   1   3
BRANCH   1  14
ATOM     14  C   GLN A   2       8.128  -1.294  21.651  0.00  0.00    +0.234 C 
ATOM     15  O   GLN A   2       9.357  -1.348  21.686  0.00  0.00    -0.274 OA
ATOM     16  N   ALA A   3       7.325  -2.274  22.175  0.00  0.00    -0.303 N 
ATOM     17  H   ALA A   3       6.311  -2.202  22.127  0.00  0.00    +0.149 HD
BRANCH  16  18
ATOM     18  CA  ALA A   3       7.852  -3.484  22.797  0.00  0.00    +0.156 C 
ATOM     19  CB  ALA A   3       7.983  -3.316  24.305  0.00  0.00    +0.038 C 
BRANCH  18  20
ATOM     20  C   ALA A   3       6.886  -4.633  22.453  0.00  0.00    +0.233 C 
ATOM     21  N   GLY A   4       5.767  -4.717  23.242  0.00  0.00    -0.307 N 
ATOM     22  H   GLY A   4       5.631  -4.093  24.035  0.00  0.00    +0.149 HD
ATOM     23  O   ALA A   3       7.102  -5.415  21.527  0.00  0.00    -0.274 OA
BRANCH  21  24
ATOM     24  CA  GLY A   4       4.783  -5.760  23.045  0.00  0.00    +0.175 C 
BRANCH  24  25
ATOM     25  C   GLY A   4       4.754  -6.673  24.252  0.00  0.00    +0.242 C 
ATOM     26  O   GLY A   4       3.978  -7.620  24.368  0.00  0.00    -0.299 OA
ENDBRANCH  24  25
ENDBRANCH  21  24
ENDBRANCH  18  20
ENDBRANCH  16  18
ENDBRANCH   1  14
BRANCH   1  27
ATOM     27  CB  GLN A   2       7.579  -0.147  19.446  0.00  0.00    +0.041 C 
BRANCH  27  28
ATOM     28  CG  GLN A   2       6.276  -0.284  18.657  0.00  0.00    +0.098 C 
BRANCH  28  29
ATOM     29  CD  GLN A   2       5.793   1.026  18.072  0.00  0.00    +0.211 C 
ATOM     30  OE1 GLN A   2       6.294   1.533  17.074  0.00  0.00    -0.276 OA
ATOM     31  NE2 GLN A   2       4.812   1.675  18.757  0.00  0.00    -0.329 N 
ATOM     32 HE21 GLN A   2       4.304   1.274  19.531  0.00  0.00    +0.145 HD
ATOM     33 HE22 GLN A   2       4.469   2.541  18.358  0.00  0.00    +0.145 HD
ENDBRANCH  28  29
ENDBRANCH  27  28
ENDBRANCH   1  27
TORSDOF 13
ENDMDL
MODEL 14
REMARK VINA RESULT:      -6.4      2.664      6.836
REMARK  Name = LQAG-mmff94.pdb
REMARK  16 active torsions:
REMARK  status: ('A' for Active; 'I' for Inactive)
REMARK    1  A    between atoms: _1  and  _2
REMARK    2  A    between atoms: _2  and  _3
REMARK    3  A    between atoms: _2  and  _5
REMARK    4  A    between atoms: _5  and  _6
REMARK    5  A    between atoms: _6  and  _7
REMARK    6  A    between atoms: _6  and  _8
REMARK    7  A    between atoms: _20  and  _21
REMARK    8  A    between atoms: _21  and  _22
REMARK    9  A    between atoms: _21  and  _24
REMARK   10  A    between atoms: _24  and  _25
REMARK   11  A    between atoms: _25  and  _26
REMARK   12  A    between atoms: _37  and  _38
REMARK   13  A    between atoms: _38  and  _39
REMARK   14  A    between atoms: _38  and  _41
REMARK   15  A    between atoms: _47  and  _48
REMARK   16  A    between atoms: _48  and  _49
REMARK                            x       y       z     vdW  Elec       q    Type
REMARK                         _______ _______ _______ _____ _____    ______ ____
ROOT
ATOM      1  CA  GLN A   2       7.624   0.429  21.219  0.00  0.00    +0.159 C 
ENDROOT
BRANCH   1   3
ATOM      2  C   LEU A   1       6.760   2.703  21.727  0.00  0.00    +0.230 C 
ATOM      3  N   GLN A   2       7.811   1.833  21.584  0.00  0.00    -0.303 N 
ATOM      4  H   GLN A   2       8.769   2.149  21.713  0.00  0.00    +0.149 HD
ATOM      5  O   LEU A   1       5.590   2.361  21.563  0.00  0.00    -0.274 OA
BRANCH   2   6
ATOM      6  CA  LEU A   1       7.166   4.152  22.089  0.00  0.00    +0.138 C 
BRANCH   6   7
ATOM      7  N   LEU A   1       5.985   4.872  22.609  0.00  0.00    -0.320 NA
ATOM      8  H1  LEU A   1       5.795   4.523  23.550  0.00  0.00    +0.119 HD
ATOM      9  H2  LEU A   1       6.267   5.842  22.773  0.00  0.00    +0.119 HD
ENDBRANCH   6   7
BRANCH   6  10
ATOM     10  CB  LEU A   1       8.307   4.135  23.119  0.00  0.00    +0.031 C 
BRANCH  10  11
ATOM     11  CG  LEU A   1       7.866   4.235  24.593  0.00  0.00    -0.015 C 
ATOM     12  CD2 LEU A   1       8.030   2.873  25.275  0.00  0.00    +0.007 C 
ATOM     13  CD1 LEU A   1       8.652   5.296  25.365  0.00  0.00    +0.007 C 
ENDBRANCH  10  11
ENDBRANCH   6  10
ENDBRANCH   2   6
ENDBRANCH   1   3
BRANCH   1  14
ATOM     14  C   GLN A   2       8.722  -0.362  21.957  0.00  0.00    +0.234 C 
ATOM     15  O   GLN A   2       9.119  -1.457  21.556  0.00  0.00    -0.274 OA
ATOM     16  N   ALA A   3       9.189   0.223  23.106  0.00  0.00    -0.303 N 
ATOM     17  H   ALA A   3       8.837   1.127  23.413  0.00  0.00    +0.149 HD
BRANCH  16  18
ATOM     18  CA  ALA A   3      10.177  -0.408  23.974  0.00  0.00    +0.156 C 
ATOM     19  CB  ALA A   3      11.049   0.632  24.665  0.00  0.00    +0.038 C 
BRANCH  18  20
ATOM     20  C   ALA A   3       9.406  -1.253  25.005  0.00  0.00    +0.233 C 
ATOM     21  N   GLY A   4       9.136  -2.542  24.626  0.00  0.00    -0.307 N 
ATOM     22  H   GLY A   4       9.381  -2.883  23.698  0.00  0.00    +0.149 HD
ATOM     23  O   ALA A   3       9.065  -0.800  26.099  0.00  0.00    -0.274 OA
BRANCH  21  24
ATOM     24  CA  GLY A   4       8.400  -3.443  25.488  0.00  0.00    +0.175 C 
BRANCH  24  25
ATOM     25  C   GLY A   4       9.194  -4.714  25.699  0.00  0.00    +0.242 C 
ATOM     26  O   GLY A   4      10.200  -5.001  25.054  0.00  0.00    -0.299 OA
ENDBRANCH  24  25
ENDBRANCH  21  24
ENDBRANCH  18  20
ENDBRANCH  16  18
ENDBRANCH   1  14
BRANCH   1  27
ATOM     27  CB  GLN A   2       7.729   0.257  19.696  0.00  0.00    +0.041 C 
BRANCH  27  28
ATOM     28  CG  GLN A   2       6.405  -0.105  19.025  0.00  0.00    +0.098 C 
BRANCH  28  29
ATOM     29  CD  GLN A   2       5.806   1.036  18.231  0.00  0.00    +0.211 C 
ATOM     30  OE1 GLN A   2       6.271   1.416  17.161  0.00  0.00    -0.276 OA
ATOM     31  NE2 GLN A   2       4.757   1.690  18.799  0.00  0.00    -0.329 N 
ATOM     32 HE21 GLN A   2       4.279   1.375  19.630  0.00  0.00    +0.145 HD
ATOM     33 HE22 GLN A   2       4.338   2.440  18.262  0.00  0.00    +0.145 HD
ENDBRANCH  28  29
ENDBRANCH  27  28
ENDBRANCH   1  27
TORSDOF 13
ENDMDL
MODEL 15
REMARK VINA RESULT:      -6.3      2.252      6.222
REMARK  Name = LQAG-mmff94.pdb
REMARK  16 active torsions:
REMARK  status: ('A' for Active; 'I' for Inactive)
REMARK    1  A    between atoms: _1  and  _2
REMARK    2  A    between atoms: _2  and  _3
REMARK    3  A    between atoms: _2  and  _5
REMARK    4  A    between atoms: _5  and  _6
REMARK    5  A    between atoms: _6  and  _7
REMARK    6  A    between atoms: _6  and  _8
REMARK    7  A    between atoms: _20  and  _21
REMARK    8  A    between atoms: _21  and  _22
REMARK    9  A    between atoms: _21  and  _24
REMARK   10  A    between atoms: _24  and  _25
REMARK   11  A    between atoms: _25  and  _26
REMARK   12  A    between atoms: _37  and  _38
REMARK   13  A    between atoms: _38  and  _39
REMARK   14  A    between atoms: _38  and  _41
REMARK   15  A    between atoms: _47  and  _48
REMARK   16  A    between atoms: _48  and  _49
REMARK                            x       y       z     vdW  Elec       q    Type
REMARK                         _______ _______ _______ _____ _____    ______ ____
ROOT
ATOM      1  CA  GLN A   2       6.793  -1.266  21.955  0.00  0.00    +0.159 C 
ENDROOT
BRANCH   1   3
ATOM      2  C   LEU A   1       7.635  -1.081  24.286  0.00  0.00    +0.230 C 
ATOM      3  N   GLN A   2       7.726  -1.615  23.025  0.00  0.00    -0.303 N 
ATOM      4  H   GLN A   2       8.470  -2.267  22.790  0.00  0.00    +0.149 HD
ATOM      5  O   LEU A   1       6.759  -0.277  24.603  0.00  0.00    -0.274 OA
BRANCH   2   6
ATOM      6  CA  LEU A   1       8.733  -1.553  25.269  0.00  0.00    +0.138 C 
BRANCH   6   7
ATOM      7  N   LEU A   1       9.274  -0.384  25.992  0.00  0.00    -0.320 NA
ATOM      8  H1  LEU A   1       9.661  -0.715  26.878  0.00  0.00    +0.119 HD
ATOM      9  H2  LEU A   1      10.102  -0.065  25.481  0.00  0.00    +0.119 HD
ENDBRANCH   6   7
BRANCH   6  10
ATOM     10  CB  LEU A   1       8.153  -2.592  26.242  0.00  0.00    +0.031 C 
BRANCH  10  11
ATOM     11  CG  LEU A   1       8.091  -4.037  25.704  0.00  0.00    -0.015 C 
ATOM     12  CD2 LEU A   1       9.371  -4.353  24.925  0.00  0.00    +0.007 C 
ATOM     13  CD1 LEU A   1       7.896  -5.065  26.820  0.00  0.00    +0.007 C 
ENDBRANCH  10  11
ENDBRANCH   6  10
ENDBRANCH   2   6
ENDBRANCH   1   3
BRANCH   1  14
ATOM     14  C   GLN A   2       6.247  -2.597  21.403  0.00  0.00    +0.234 C 
ATOM     15  O   GLN A   2       5.543  -2.645  20.394  0.00  0.00    -0.274 OA
ATOM     16  N   ALA A   3       6.569  -3.708  22.138  0.00  0.00    -0.303 N 
ATOM     17  H   ALA A   3       7.150  -3.635  22.971  0.00  0.00    +0.149 HD
BRANCH  16  18
ATOM     18  CA  ALA A   3       6.086  -5.045  21.811  0.00  0.00    +0.156 C 
ATOM     19  CB  ALA A   3       7.204  -6.075  21.908  0.00  0.00    +0.038 C 
BRANCH  18  20
ATOM     20  C   ALA A   3       4.948  -5.374  22.795  0.00  0.00    +0.233 C 
ATOM     21  N   GLY A   4       5.129  -6.507  23.547  0.00  0.00    -0.307 N 
ATOM     22  H   GLY A   4       5.937  -7.110  23.407  0.00  0.00    +0.149 HD
ATOM     23  O   ALA A   3       3.950  -4.660  22.904  0.00  0.00    -0.274 OA
BRANCH  21  24
ATOM     24  CA  GLY A   4       4.131  -6.947  24.498  0.00  0.00    +0.175 C 
BRANCH  24  25
ATOM     25  C   GLY A   4       4.488  -6.451  25.883  0.00  0.00    +0.242 C 
ATOM     26  O   GLY A   4       5.113  -7.120  26.703  0.00  0.00    -0.299 OA
ENDBRANCH  24  25
ENDBRANCH  21  24
ENDBRANCH  18  20
ENDBRANCH  16  18
ENDBRANCH   1  14
BRANCH   1  27
ATOM     27  CB  GLN A   2       7.510  -0.453  20.867  0.00  0.00    +0.041 C 
BRANCH  27  28
ATOM     28  CG  GLN A   2       7.961   0.932  21.330  0.00  0.00    +0.098 C 
BRANCH  28  29
ATOM     29  CD  GLN A   2       9.438   1.004  21.650  0.00  0.00    +0.211 C 
ATOM     30  OE1 GLN A   2      10.104   0.015  21.940  0.00  0.00    -0.276 OA
ATOM     31  NE2 GLN A   2       9.996   2.245  21.685  0.00  0.00    -0.329 N 
ATOM     32 HE21 GLN A   2       9.526   3.083  21.376  0.00  0.00    +0.145 HD
ATOM     33 HE22 GLN A   2      10.989   2.297  21.877  0.00  0.00    +0.145 HD
ENDBRANCH  28  29
ENDBRANCH  27  28
ENDBRANCH   1  27
TORSDOF 13
ENDMDL
MODEL 16
REMARK VINA RESULT:      -6.3      2.080      4.154
REMARK  Name = LQAG-mmff94.pdb
REMARK  16 active torsions:
REMARK  status: ('A' for Active; 'I' for Inactive)
REMARK    1  A    between atoms: _1  and  _2
REMARK    2  A    between atoms: _2  and  _3
REMARK    3  A    between atoms: _2  and  _5
REMARK    4  A    between atoms: _5  and  _6
REMARK    5  A    between atoms: _6  and  _7
REMARK    6  A    between atoms: _6  and  _8
REMARK    7  A    between atoms: _20  and  _21
REMARK    8  A    between atoms: _21  and  _22
REMARK    9  A    between atoms: _21  and  _24
REMARK   10  A    between atoms: _24  and  _25
REMARK   11  A    between atoms: _25  and  _26
REMARK   12  A    between atoms: _37  and  _38
REMARK   13  A    between atoms: _38  and  _39
REMARK   14  A    between atoms: _38  and  _41
REMARK   15  A    between atoms: _47  and  _48
REMARK   16  A    between atoms: _48  and  _49
REMARK                            x       y       z     vdW  Elec       q    Type
REMARK                         _______ _______ _______ _____ _____    ______ ____
ROOT
ATOM      1  CA  GLN A   2       8.387  -2.510  23.697  0.00  0.00    +0.159 C 
ENDROOT
BRANCH   1   3
ATOM      2  C   LEU A   1       9.827  -0.844  22.543  0.00  0.00    +0.230 C 
ATOM      3  N   GLN A   2       8.771  -1.137  23.368  0.00  0.00    -0.303 N 
ATOM      4  H   GLN A   2       8.225  -0.394  23.798  0.00  0.00    +0.149 HD
ATOM      5  O   LEU A   1      10.519  -1.716  22.019  0.00  0.00    -0.274 OA
BRANCH   2   6
ATOM      6  CA  LEU A   1      10.090   0.667  22.342  0.00  0.00    +0.138 C 
BRANCH   6   7
ATOM      7  N   LEU A   1       9.104   1.209  21.385  0.00  0.00    -0.320 NA
ATOM      8  H1  LEU A   1       8.764   2.099  21.756  0.00  0.00    +0.119 HD
ATOM      9  H2  LEU A   1       9.617   1.489  20.544  0.00  0.00    +0.119 HD
ENDBRANCH   6   7
BRANCH   6  10
ATOM     10  CB  LEU A   1      10.016   1.397  23.693  0.00  0.00    +0.031 C 
BRANCH  10  11
ATOM     11  CG  LEU A   1       9.072   2.616  23.734  0.00  0.00    -0.015 C 
ATOM     12  CD2 LEU A   1       8.168   2.528  24.968  0.00  0.00    +0.007 C 
ATOM     13  CD1 LEU A   1       9.833   3.942  23.744  0.00  0.00    +0.007 C 
ENDBRANCH  10  11
ENDBRANCH   6  10
ENDBRANCH   2   6
ENDBRANCH   1   3
BRANCH   1  14
ATOM     14  C   GLN A   2       7.197  -2.859  22.783  0.00  0.00    +0.234 C 
ATOM     15  O   GLN A   2       6.449  -1.993  22.325  0.00  0.00    -0.274 OA
ATOM     16  N   ALA A   3       7.011  -4.198  22.554  0.00  0.00    -0.303 N 
ATOM     17  H   ALA A   3       7.643  -4.889  22.950  0.00  0.00    +0.149 HD
BRANCH  16  18
ATOM     18  CA  ALA A   3       5.897  -4.723  21.771  0.00  0.00    +0.156 C 
ATOM     19  CB  ALA A   3       6.359  -5.824  20.826  0.00  0.00    +0.038 C 
BRANCH  18  20
ATOM     20  C   ALA A   3       4.850  -5.256  22.767  0.00  0.00    +0.233 C 
ATOM     21  N   GLY A   4       5.213  -6.386  23.453  0.00  0.00    -0.307 N 
ATOM     22  H   GLY A   4       6.091  -6.863  23.260  0.00  0.00    +0.149 HD
ATOM     23  O   ALA A   3       3.766  -4.696  22.939  0.00  0.00    -0.274 OA
BRANCH  21  24
ATOM     24  CA  GLY A   4       4.318  -7.008  24.406  0.00  0.00    +0.175 C 
BRANCH  24  25
ATOM     25  C   GLY A   4       4.570  -6.447  25.789  0.00  0.00    +0.242 C 
ATOM     26  O   GLY A   4       5.244  -7.020  26.642  0.00  0.00    -0.299 OA
ENDBRANCH  24  25
ENDBRANCH  21  24
ENDBRANCH  18  20
ENDBRANCH  16  18
ENDBRANCH   1  14
BRANCH   1  27
ATOM     27  CB  GLN A   2       8.010  -2.616  25.182  0.00  0.00    +0.041 C 
BRANCH  27  28
ATOM     28  CG  GLN A   2       8.822  -3.659  25.950  0.00  0.00    +0.098 C 
BRANCH  28  29
ATOM     29  CD  GLN A   2       8.205  -5.041  25.914  0.00  0.00    +0.211 C 
ATOM     30  OE1 GLN A   2       7.808  -5.564  24.879  0.00  0.00    -0.276 OA
ATOM     31  NE2 GLN A   2       8.031  -5.662  27.112  0.00  0.00    -0.329 N 
ATOM     32 HE21 GLN A   2       8.410  -5.323  27.984  0.00  0.00    +0.145 HD
ATOM     33 HE22 GLN A   2       7.640  -6.596  27.092  0.00  0.00    +0.145 HD
ENDBRANCH  28  29
ENDBRANCH  27  28
ENDBRANCH   1  27
TORSDOF 13
ENDMDL
MODEL 17
REMARK VINA RESULT:      -6.3      2.116      7.210
REMARK  Name = LQAG-mmff94.pdb
REMARK  16 active torsions:
REMARK  status: ('A' for Active; 'I' for Inactive)
REMARK    1  A    between atoms: _1  and  _2
REMARK    2  A    between atoms: _2  and  _3
REMARK    3  A    between atoms: _2  and  _5
REMARK    4  A    between atoms: _5  and  _6
REMARK    5  A    between atoms: _6  and  _7
REMARK    6  A    between atoms: _6  and  _8
REMARK    7  A    between atoms: _20  and  _21
REMARK    8  A    between atoms: _21  and  _22
REMARK    9  A    between atoms: _21  and  _24
REMARK   10  A    between atoms: _24  and  _25
REMARK   11  A    between atoms: _25  and  _26
REMARK   12  A    between atoms: _37  and  _38
REMARK   13  A    between atoms: _38  and  _39
REMARK   14  A    between atoms: _38  and  _41
REMARK   15  A    between atoms: _47  and  _48
REMARK   16  A    between atoms: _48  and  _49
REMARK                            x       y       z     vdW  Elec       q    Type
REMARK                         _______ _______ _______ _____ _____    ______ ____
ROOT
ATOM      1  CA  GLN A   2       7.390  -1.202  21.061  0.00  0.00    +0.159 C 
ENDROOT
BRANCH   1   3
ATOM      2  C   LEU A   1       5.778  -2.931  21.831  0.00  0.00    +0.230 C 
ATOM      3  N   GLN A   2       6.582  -1.851  22.094  0.00  0.00    -0.303 N 
ATOM      4  H   GLN A   2       6.627  -1.452  23.028  0.00  0.00    +0.149 HD
ATOM      5  O   LEU A   1       5.686  -3.430  20.710  0.00  0.00    -0.274 OA
BRANCH   2   6
ATOM      6  CA  LEU A   1       4.982  -3.456  23.049  0.00  0.00    +0.138 C 
BRANCH   6   7
ATOM      7  N   LEU A   1       4.397  -4.771  22.718  0.00  0.00    -0.320 NA
ATOM      8  H1  LEU A   1       4.379  -5.330  23.573  0.00  0.00    +0.119 HD
ATOM      9  H2  LEU A   1       3.404  -4.622  22.516  0.00  0.00    +0.119 HD
ENDBRANCH   6   7
BRANCH   6  10
ATOM     10  CB  LEU A   1       5.902  -3.547  24.277  0.00  0.00    +0.031 C 
BRANCH  10  11
ATOM     11  CG  LEU A   1       6.628  -4.896  24.459  0.00  0.00    -0.015 C 
ATOM     12  CD2 LEU A   1       8.081  -4.768  23.992  0.00  0.00    +0.007 C 
ATOM     13  CD1 LEU A   1       6.591  -5.387  25.907  0.00  0.00    +0.007 C 
ENDBRANCH  10  11
ENDBRANCH   6  10
ENDBRANCH   2   6
ENDBRANCH   1   3
BRANCH   1  14
ATOM     14  C   GLN A   2       8.760  -0.907  21.702  0.00  0.00    +0.234 C 
ATOM     15  O   GLN A   2       9.664  -1.743  21.723  0.00  0.00    -0.274 OA
ATOM     16  N   ALA A   3       8.879   0.331  22.279  0.00  0.00    -0.303 N 
ATOM     17  H   ALA A   3       8.111   0.998  22.249  0.00  0.00    +0.149 HD
BRANCH  16  18
ATOM     18  CA  ALA A   3      10.075   0.763  22.993  0.00  0.00    +0.156 C 
ATOM     19  CB  ALA A   3      10.346   2.245  22.769  0.00  0.00    +0.038 C 
BRANCH  18  20
ATOM     20  C   ALA A   3       9.848   0.465  24.487  0.00  0.00    +0.233 C 
ATOM     21  N   GLY A   4       8.536   0.364  24.874  0.00  0.00    -0.307 N 
ATOM     22  H   GLY A   4       7.777   0.537  24.219  0.00  0.00    +0.149 HD
ATOM     23  O   ALA A   3      10.783   0.320  25.275  0.00  0.00    -0.274 OA
BRANCH  21  24
ATOM     24  CA  GLY A   4       8.176   0.107  26.252  0.00  0.00    +0.175 C 
BRANCH  24  25
ATOM     25  C   GLY A   4       7.771  -1.342  26.415  0.00  0.00    +0.242 C 
ATOM     26  O   GLY A   4       8.577  -2.265  26.520  0.00  0.00    -0.299 OA
ENDBRANCH  24  25
ENDBRANCH  21  24
ENDBRANCH  18  20
ENDBRANCH  16  18
ENDBRANCH   1  14
BRANCH   1  27
ATOM     27  CB  GLN A   2       6.703   0.083  20.577  0.00  0.00    +0.041 C 
BRANCH  27  28
ATOM     28  CG  GLN A   2       7.117   0.510  19.169  0.00  0.00    +0.098 C 
BRANCH  28  29
ATOM     29  CD  GLN A   2       5.975   0.480  18.176  0.00  0.00    +0.211 C 
ATOM     30  OE1 GLN A   2       5.764  -0.474  17.435  0.00  0.00    -0.276 OA
ATOM     31  NE2 GLN A   2       5.223   1.610  18.076  0.00  0.00    -0.329 N 
ATOM     32 HE21 GLN A   2       5.293   2.391  18.711  0.00  0.00    +0.145 HD
ATOM     33 HE22 GLN A   2       4.444   1.588  17.429  0.00  0.00    +0.145 HD
ENDBRANCH  28  29
ENDBRANCH  27  28
ENDBRANCH   1  27
TORSDOF 13
ENDMDL
MODEL 18
REMARK VINA RESULT:      -6.3      1.858      4.556
REMARK  Name = LQAG-mmff94.pdb
REMARK  16 active torsions:
REMARK  status: ('A' for Active; 'I' for Inactive)
REMARK    1  A    between atoms: _1  and  _2
REMARK    2  A    between atoms: _2  and  _3
REMARK    3  A    between atoms: _2  and  _5
REMARK    4  A    between atoms: _5  and  _6
REMARK    5  A    between atoms: _6  and  _7
REMARK    6  A    between atoms: _6  and  _8
REMARK    7  A    between atoms: _20  and  _21
REMARK    8  A    between atoms: _21  and  _22
REMARK    9  A    between atoms: _21  and  _24
REMARK   10  A    between atoms: _24  and  _25
REMARK   11  A    between atoms: _25  and  _26
REMARK   12  A    between atoms: _37  and  _38
REMARK   13  A    between atoms: _38  and  _39
REMARK   14  A    between atoms: _38  and  _41
REMARK   15  A    between atoms: _47  and  _48
REMARK   16  A    between atoms: _48  and  _49
REMARK                            x       y       z     vdW  Elec       q    Type
REMARK                         _______ _______ _______ _____ _____    ______ ____
ROOT
ATOM      1  CA  GLN A   2       8.014  -2.254  22.868  0.00  0.00    +0.159 C 
ENDROOT
BRANCH   1   3
ATOM      2  C   LEU A   1       8.362  -0.059  21.755  0.00  0.00    +0.230 C 
ATOM      3  N   GLN A   2       7.705  -0.838  22.673  0.00  0.00    -0.303 N 
ATOM      4  H   GLN A   2       6.982  -0.441  23.269  0.00  0.00    +0.149 HD
ATOM      5  O   LEU A   1       9.252  -0.501  21.029  0.00  0.00    -0.274 OA
BRANCH   2   6
ATOM      6  CA  LEU A   1       7.911   1.420  21.720  0.00  0.00    +0.138 C 
BRANCH   6   7
ATOM      7  N   LEU A   1       6.436   1.478  21.678  0.00  0.00    -0.320 NA
ATOM      8  H1  LEU A   1       6.114   1.925  22.539  0.00  0.00    +0.119 HD
ATOM      9  H2  LEU A   1       6.177   2.155  20.954  0.00  0.00    +0.119 HD
ENDBRANCH   6   7
BRANCH   6  10
ATOM     10  CB  LEU A   1       8.463   2.166  22.946  0.00  0.00    +0.031 C 
BRANCH  10  11
ATOM     11  CG  LEU A   1       9.945   1.890  23.274  0.00  0.00    -0.015 C 
ATOM     12  CD2 LEU A   1      10.714   3.213  23.344  0.00  0.00    +0.007 C 
ATOM     13  CD1 LEU A   1      10.118   1.122  24.585  0.00  0.00    +0.007 C 
ENDBRANCH  10  11
ENDBRANCH   6  10
ENDBRANCH   2   6
ENDBRANCH   1   3
BRANCH   1  14
ATOM     14  C   GLN A   2       6.770  -3.038  22.406  0.00  0.00    +0.234 C 
ATOM     15  O   GLN A   2       5.872  -2.509  21.749  0.00  0.00    -0.274 OA
ATOM     16  N   ALA A   3       6.721  -4.346  22.814  0.00  0.00    -0.303 N 
ATOM     17  H   ALA A   3       7.477  -4.753  23.360  0.00  0.00    +0.149 HD
BRANCH  16  18
ATOM     18  CA  ALA A   3       5.590  -5.224  22.533  0.00  0.00    +0.156 C 
ATOM     19  CB  ALA A   3       5.892  -6.154  21.365  0.00  0.00    +0.038 C 
BRANCH  18  20
ATOM     20  C   ALA A   3       5.304  -6.026  23.816  0.00  0.00    +0.233 C 
ATOM     21  N   GLY A   4       5.812  -5.489  24.971  0.00  0.00    -0.307 N 
ATOM     22  H   GLY A   4       6.389  -4.651  24.955  0.00  0.00    +0.149 HD
ATOM     23  O   ALA A   3       4.655  -7.072  23.803  0.00  0.00    -0.274 OA
BRANCH  21  24
ATOM     24  CA  GLY A   4       5.637  -6.147  26.248  0.00  0.00    +0.175 C 
BRANCH  24  25
ATOM     25  C   GLY A   4       6.416  -5.412  27.316  0.00  0.00    +0.242 C 
ATOM     26  O   GLY A   4       7.460  -5.836  27.808  0.00  0.00    -0.299 OA
ENDBRANCH  24  25
ENDBRANCH  21  24
ENDBRANCH  18  20
ENDBRANCH  16  18
ENDBRANCH   1  14
BRANCH   1  27
ATOM     27  CB  GLN A   2       8.341  -2.529  24.343  0.00  0.00    +0.041 C 
BRANCH  27  28
ATOM     28  CG  GLN A   2       9.650  -3.291  24.552  0.00  0.00    +0.098 C 
BRANCH  28  29
ATOM     29  CD  GLN A   2       9.442  -4.734  24.959  0.00  0.00    +0.211 C 
ATOM     30  OE1 GLN A   2       8.841  -5.542  24.258  0.00  0.00    -0.276 OA
ATOM     31  NE2 GLN A   2       9.888  -5.090  26.194  0.00  0.00    -0.329 N 
ATOM     32 HE21 GLN A   2      10.461  -4.498  26.779  0.00  0.00    +0.145 HD
ATOM     33 HE22 GLN A   2       9.773  -6.059  26.463  0.00  0.00    +0.145 HD
ENDBRANCH  28  29
ENDBRANCH  27  28
ENDBRANCH   1  27
TORSDOF 13
ENDMDL
MODEL 19
REMARK VINA RESULT:      -6.2      1.929      5.464
REMARK  Name = LQAG-mmff94.pdb
REMARK  16 active torsions:
REMARK  status: ('A' for Active; 'I' for Inactive)
REMARK    1  A    between atoms: _1  and  _2
REMARK    2  A    between atoms: _2  and  _3
REMARK    3  A    between atoms: _2  and  _5
REMARK    4  A    between atoms: _5  and  _6
REMARK    5  A    between atoms: _6  and  _7
REMARK    6  A    between atoms: _6  and  _8
REMARK    7  A    between atoms: _20  and  _21
REMARK    8  A    between atoms: _21  and  _22
REMARK    9  A    between atoms: _21  and  _24
REMARK   10  A    between atoms: _24  and  _25
REMARK   11  A    between atoms: _25  and  _26
REMARK   12  A    between atoms: _37  and  _38
REMARK   13  A    between atoms: _38  and  _39
REMARK   14  A    between atoms: _38  and  _41
REMARK   15  A    between atoms: _47  and  _48
REMARK   16  A    between atoms: _48  and  _49
REMARK                            x       y       z     vdW  Elec       q    Type
REMARK                         _______ _______ _______ _____ _____    ______ ____
ROOT
ATOM      1  CA  GLN A   2       8.190  -1.218  21.579  0.00  0.00    +0.159 C 
ENDROOT
BRANCH   1   3
ATOM      2  C   LEU A   1       7.184   0.926  20.826  0.00  0.00    +0.230 C 
ATOM      3  N   GLN A   2       7.574   0.083  21.836  0.00  0.00    -0.303 N 
ATOM      4  H   GLN A   2       7.459   0.351  22.810  0.00  0.00    +0.149 HD
ATOM      5  O   LEU A   1       7.321   0.642  19.636  0.00  0.00    -0.274 OA
BRANCH   2   6
ATOM      6  CA  LEU A   1       6.578   2.268  21.302  0.00  0.00    +0.138 C 
BRANCH   6   7
ATOM      7  N   LEU A   1       5.157   2.328  20.905  0.00  0.00    -0.320 NA
ATOM      8  H1  LEU A   1       4.610   2.575  21.732  0.00  0.00    +0.119 HD
ATOM      9  H2  LEU A   1       5.043   3.146  20.298  0.00  0.00    +0.119 HD
ENDBRANCH   6   7
BRANCH   6  10
ATOM     10  CB  LEU A   1       6.739   2.404  22.825  0.00  0.00    +0.031 C 
BRANCH  10  11
ATOM     11  CG  LEU A   1       7.453   3.686  23.301  0.00  0.00    -0.015 C 
ATOM     12  CD2 LEU A   1       8.952   3.414  23.457  0.00  0.00    +0.007 C 
ATOM     13  CD1 LEU A   1       7.238   4.861  22.345  0.00  0.00    +0.007 C 
ENDBRANCH  10  11
ENDBRANCH   6  10
ENDBRANCH   2   6
ENDBRANCH   1   3
BRANCH   1  14
ATOM     14  C   GLN A   2       7.350  -2.257  22.347  0.00  0.00    +0.234 C 
ATOM     15  O   GLN A   2       6.475  -1.925  23.147  0.00  0.00    -0.274 OA
ATOM     16  N   ALA A   3       7.677  -3.566  22.103  0.00  0.00    -0.303 N 
ATOM     17  H   ALA A   3       8.409  -3.808  21.439  0.00  0.00    +0.149 HD
BRANCH  16  18
ATOM     18  CA  ALA A   3       7.039  -4.685  22.789  0.00  0.00    +0.156 C 
ATOM     19  CB  ALA A   3       7.092  -5.951  21.944  0.00  0.00    +0.038 C 
BRANCH  18  20
ATOM     20  C   ALA A   3       7.778  -4.883  24.125  0.00  0.00    +0.233 C 
ATOM     21  N   GLY A   4       7.110  -4.440  25.238  0.00  0.00    -0.307 N 
ATOM     22  H   GLY A   4       6.216  -3.960  25.161  0.00  0.00    +0.149 HD
ATOM     23  O   ALA A   3       8.888  -5.412  24.188  0.00  0.00    -0.274 OA
BRANCH  21  24
ATOM     24  CA  GLY A   4       7.693  -4.544  26.558  0.00  0.00    +0.175 C 
BRANCH  24  25
ATOM     25  C   GLY A   4       6.778  -5.339  27.463  0.00  0.00    +0.242 C 
ATOM     26  O   GLY A   4       7.181  -6.166  28.280  0.00  0.00    -0.299 OA
ENDBRANCH  24  25
ENDBRANCH  21  24
ENDBRANCH  18  20
ENDBRANCH  16  18
ENDBRANCH   1  14
BRANCH   1  27
ATOM     27  CB  GLN A   2       9.653  -1.215  22.047  0.00  0.00    +0.041 C 
BRANCH  27  28
ATOM     28  CG  GLN A   2       9.978  -0.103  23.044  0.00  0.00    +0.098 C 
BRANCH  28  29
ATOM     29  CD  GLN A   2       9.919  -0.558  24.487  0.00  0.00    +0.211 C 
ATOM     30  OE1 GLN A   2       9.568  -1.687  24.814  0.00  0.00    -0.276 OA
ATOM     31  NE2 GLN A   2      10.200   0.379  25.434  0.00  0.00    -0.329 N 
ATOM     32 HE21 GLN A   2      10.573   1.293  25.229  0.00  0.00    +0.145 HD
ATOM     33 HE22 GLN A   2      10.184   0.074  26.400  0.00  0.00    +0.145 HD
ENDBRANCH  28  29
ENDBRANCH  27  28
ENDBRANCH   1  27
TORSDOF 13
ENDMDL
MODEL 20
REMARK VINA RESULT:      -6.2      2.910      7.191
REMARK  Name = LQAG-mmff94.pdb
REMARK  16 active torsions:
REMARK  status: ('A' for Active; 'I' for Inactive)
REMARK    1  A    between atoms: _1  and  _2
REMARK    2  A    between atoms: _2  and  _3
REMARK    3  A    between atoms: _2  and  _5
REMARK    4  A    between atoms: _5  and  _6
REMARK    5  A    between atoms: _6  and  _7
REMARK    6  A    between atoms: _6  and  _8
REMARK    7  A    between atoms: _20  and  _21
REMARK    8  A    between atoms: _21  and  _22
REMARK    9  A    between atoms: _21  and  _24
REMARK   10  A    between atoms: _24  and  _25
REMARK   11  A    between atoms: _25  and  _26
REMARK   12  A    between atoms: _37  and  _38
REMARK   13  A    between atoms: _38  and  _39
REMARK   14  A    between atoms: _38  and  _41
REMARK   15  A    between atoms: _47  and  _48
REMARK   16  A    between atoms: _48  and  _49
REMARK                            x       y       z     vdW  Elec       q    Type
REMARK                         _______ _______ _______ _____ _____    ______ ____
ROOT
ATOM      1  CA  GLN A   2       8.394  -0.337  20.762  0.00  0.00    +0.159 C 
ENDROOT
BRANCH   1   3
ATOM      2  C   LEU A   1       7.648  -1.895  22.550  0.00  0.00    +0.230 C 
ATOM      3  N   GLN A   2       7.367  -0.923  21.623  0.00  0.00    -0.303 N 
ATOM      4  H   GLN A   2       6.415  -0.589  21.492  0.00  0.00    +0.149 HD
ATOM      5  O   LEU A   1       8.784  -2.334  22.724  0.00  0.00    -0.274 OA
BRANCH   2   6
ATOM      6  CA  LEU A   1       6.422  -2.407  23.342  0.00  0.00    +0.138 C 
BRANCH   6   7
ATOM      7  N   LEU A   1       5.702  -1.255  23.923  0.00  0.00    -0.320 NA
ATOM      8  H1  LEU A   1       4.721  -1.327  23.647  0.00  0.00    +0.119 HD
ATOM      9  H2  LEU A   1       5.670  -1.395  24.937  0.00  0.00    +0.119 HD
ENDBRANCH   6   7
BRANCH   6  10
ATOM     10  CB  LEU A   1       5.507  -3.228  22.419  0.00  0.00    +0.031 C 
BRANCH  10  11
ATOM     11  CG  LEU A   1       5.591  -4.758  22.597  0.00  0.00    -0.015 C 
ATOM     12  CD2 LEU A   1       6.265  -5.384  21.372  0.00  0.00    +0.007 C 
ATOM     13  CD1 LEU A   1       6.350  -5.155  23.864  0.00  0.00    +0.007 C 
ENDBRANCH  10  11
ENDBRANCH   6  10
ENDBRANCH   2   6
ENDBRANCH   1   3
BRANCH   1  14
ATOM     14  C   GLN A   2       8.876   0.943  21.471  0.00  0.00    +0.234 C 
ATOM     15  O   GLN A   2      10.072   1.179  21.649  0.00  0.00    -0.274 OA
ATOM     16  N   ALA A   3       7.880   1.772  21.919  0.00  0.00    -0.303 N 
ATOM     17  H   ALA A   3       6.900   1.546  21.759  0.00  0.00    +0.149 HD
BRANCH  16  18
ATOM     18  CA  ALA A   3       8.141   2.993  22.672  0.00  0.00    +0.156 C 
ATOM     19  CB  ALA A   3       7.047   4.028  22.442  0.00  0.00    +0.038 C 
BRANCH  18  20
ATOM     20  C   ALA A   3       8.226   2.603  24.160  0.00  0.00    +0.233 C 
ATOM     21  N   GLY A   4       7.688   1.383  24.480  0.00  0.00    -0.307 N 
ATOM     22  H   GLY A   4       7.214   0.815  23.781  0.00  0.00    +0.149 HD
ATOM     23  O   ALA A   3       8.750   3.336  25.000  0.00  0.00    -0.274 OA
BRANCH  21  24
ATOM     24  CA  GLY A   4       7.680   0.898  25.843  0.00  0.00    +0.175 C 
BRANCH  24  25
ATOM     25  C   GLY A   4       8.599  -0.298  25.968  0.00  0.00    +0.242 C 
ATOM     26  O   GLY A   4       9.664  -0.402  25.363  0.00  0.00    -0.299 OA
ENDBRANCH  24  25
ENDBRANCH  21  24
ENDBRANCH  18  20
ENDBRANCH  16  18
ENDBRANCH   1  14
BRANCH   1  27
ATOM     27  CB  GLN A   2       7.813  -0.031  19.373  0.00  0.00    +0.041 C 
BRANCH  27  28
ATOM     28  CG  GLN A   2       6.296  -0.198  19.290  0.00  0.00    +0.098 C 
BRANCH  28  29
ATOM     29  CD  GLN A   2       5.618   0.891  18.487  0.00  0.00    +0.211 C 
ATOM     30  OE1 GLN A   2       6.076   1.321  17.433  0.00  0.00    -0.276 OA
ATOM     31  NE2 GLN A   2       4.500   1.444  19.030  0.00  0.00    -0.329 N 
ATOM     32 HE21 GLN A   2       4.030   1.080  19.846  0.00  0.00    +0.145 HD
ATOM     33 HE22 GLN A   2       4.030   2.158  18.486  0.00  0.00    +0.145 HD
ENDBRANCH  28  29
ENDBRANCH  27  28
ENDBRANCH   1  27
TORSDOF 13
ENDMDL
