REMARK  Name = LQAG-mmff94.pdb
REMARK  16 active torsions:
REMARK  status: ('A' for Active; 'I' for Inactive)
REMARK    1  A    between atoms: _1  and  _2
REMARK    2  A    between atoms: _2  and  _3
REMARK    3  A    between atoms: _2  and  _5
REMARK    4  A    between atoms: _5  and  _6
REMARK    5  A    between atoms: _6  and  _7
REMARK    6  A    between atoms: _6  and  _8
REMARK    7  A    between atoms: _20  and  _21
REMARK    8  A    between atoms: _21  and  _22
REMARK    9  A    between atoms: _21  and  _24
REMARK   10  A    between atoms: _24  and  _25
REMARK   11  A    between atoms: _25  and  _26
REMARK   12  A    between atoms: _37  and  _38
REMARK   13  A    between atoms: _38  and  _39
REMARK   14  A    between atoms: _38  and  _41
REMARK   15  A    between atoms: _47  and  _48
REMARK   16  A    between atoms: _48  and  _49
REMARK                            x       y       z     vdW  Elec       q    Type
REMARK                         _______ _______ _______ _____ _____    ______ ____
ROOT
ATOM      1  CA  GLN A   2       4.903   0.118  -1.179  0.00  0.00    +0.159 C 
ENDROOT
BRANCH   1   3
ATOM      2  C   LEU A   1       2.722  -0.997  -0.757  0.00  0.00    +0.230 C 
ATOM      3  N   GLN A   2       3.441   0.108  -1.137  0.00  0.00    -0.303 N 
ATOM      4  H   GLN A   2       2.969   0.962  -1.423  0.00  0.00    +0.149 HD
ATOM      5  O   LEU A   1       3.258  -2.052  -0.420  0.00  0.00    -0.274 OA
BRANCH   2   6
ATOM      6  CA  LEU A   1       1.186  -0.817  -0.806  0.00  0.00    +0.138 C 
BRANCH   6   7
ATOM      7  N   LEU A   1       0.539  -2.144  -0.757  0.00  0.00    -0.320 NA
ATOM      8  H1  LEU A   1       0.942  -2.717  -1.501  0.00  0.00    +0.119 HD
ATOM      9  H2  LEU A   1       0.862  -2.610   0.096  0.00  0.00    +0.119 HD
ENDBRANCH   6   7
BRANCH   6  10
ATOM     10  CB  LEU A   1       0.725   0.072   0.361  0.00  0.00    +0.031 C 
BRANCH  10  11
ATOM     11  CG  LEU A   1      -0.798   0.297   0.457  0.00  0.00    -0.015 C 
ATOM     12  CD2 LEU A   1      -1.119   1.134   1.699  0.00  0.00    +0.007 C 
ATOM     13  CD1 LEU A   1      -1.365   0.981  -0.788  0.00  0.00    +0.007 C 
ENDBRANCH  10  11
ENDBRANCH   6  10
ENDBRANCH   2   6
ENDBRANCH   1   3
BRANCH   1  14
ATOM     14  C   GLN A   2       5.328   1.599  -1.165  0.00  0.00    +0.234 C 
ATOM     15  O   GLN A   2       4.593   2.493  -1.586  0.00  0.00    -0.274 OA
ATOM     16  N   ALA A   3       6.592   1.838  -0.690  0.00  0.00    -0.303 N 
ATOM     17  H   ALA A   3       7.177   1.077  -0.353  0.00  0.00    +0.149 HD
BRANCH  16  18
ATOM     18  CA  ALA A   3       7.193   3.167  -0.665  0.00  0.00    +0.156 C 
ATOM     19  CB  ALA A   3       6.723   3.962   0.546  0.00  0.00    +0.038 C 
BRANCH  18  20
ATOM     20  C   ALA A   3       8.721   2.977  -0.639  0.00  0.00    +0.233 C 
ATOM     21  N   GLY A   4       9.459   4.121  -0.804  0.00  0.00    -0.307 N 
ATOM     22  H   GLY A   4       9.012   5.016  -0.991  0.00  0.00    +0.149 HD
ATOM     23  O   ALA A   3       9.241   1.873  -0.472  0.00  0.00    -0.274 OA
BRANCH  21  24
ATOM     24  CA  GLY A   4      10.906   4.088  -0.821  0.00  0.00    +0.175 C 
BRANCH  24  25
ATOM     25  C   GLY A   4      11.450   5.491  -0.981  0.00  0.00    +0.242 C 
ATOM     26  O   GLY A   4      10.738   6.482  -1.132  0.00  0.00    -0.299 OA
ENDBRANCH  24  25
ENDBRANCH  21  24
ENDBRANCH  18  20
ENDBRANCH  16  18
ENDBRANCH   1  14
BRANCH   1  27
ATOM     27  CB  GLN A   2       5.404  -0.603  -2.439  0.00  0.00    +0.041 C 
BRANCH  27  28
ATOM     28  CG  GLN A   2       6.923  -0.766  -2.492  0.00  0.00    +0.098 C 
BRANCH  28  29
ATOM     29  CD  GLN A   2       7.375  -1.842  -3.456  0.00  0.00    +0.211 C 
ATOM     30  OE1 GLN A   2       8.234  -2.670  -3.172  0.00  0.00    -0.276 OA
ATOM     31  NE2 GLN A   2       6.838  -1.806  -4.706  0.00  0.00    -0.329 N 
ATOM     32 HE21 GLN A   2       6.071  -1.207  -4.973  0.00  0.00    +0.145 HD
ATOM     33 HE22 GLN A   2       7.120  -2.537  -5.348  0.00  0.00    +0.145 HD
ENDBRANCH  28  29
ENDBRANCH  27  28
ENDBRANCH   1  27
TORSDOF 13
