REMARK  Name = LQAI-mmff94.pdb
REMARK  20 active torsions:
REMARK  status: ('A' for Active; 'I' for Inactive)
REMARK    1  A    between atoms: _1  and  _2
REMARK    2  A    between atoms: _2  and  _3
REMARK    3  A    between atoms: _2  and  _5
REMARK    4  A    between atoms: _5  and  _6
REMARK    5  A    between atoms: _6  and  _7
REMARK    6  A    between atoms: _6  and  _8
REMARK    7  A    between atoms: _20  and  _21
REMARK    8  A    between atoms: _21  and  _22
REMARK    9  A    between atoms: _21  and  _24
REMARK   10  A    between atoms: _24  and  _25
REMARK   11  A    between atoms: _25  and  _26
REMARK   12  A    between atoms: _37  and  _38
REMARK   13  A    between atoms: _38  and  _39
REMARK   14  A    between atoms: _38  and  _41
REMARK   15  A    between atoms: _47  and  _48
REMARK   16  A    between atoms: _48  and  _49
REMARK   17  A    between atoms: _48  and  _51
REMARK   18  A    between atoms: _51  and  _52
REMARK   19  A    between atoms: _51  and  _53
REMARK   20  A    between atoms: _52  and  _54
REMARK                            x       y       z     vdW  Elec       q    Type
REMARK                         _______ _______ _______ _____ _____    ______ ____
ROOT
ATOM      1  CA  GLN A   2       4.853   0.126  -1.097  0.00  0.00    +0.159 C 
ENDROOT
BRANCH   1   3
ATOM      2  C   LEU A   1       2.673  -1.005  -0.723  0.00  0.00    +0.230 C 
ATOM      3  N   GLN A   2       3.393   0.104  -1.094  0.00  0.00    -0.303 N 
ATOM      4  H   GLN A   2       2.920   0.945  -1.415  0.00  0.00    +0.149 HD
ATOM      5  O   LEU A   1       3.209  -2.055  -0.374  0.00  0.00    -0.274 OA
BRANCH   2   6
ATOM      6  CA  LEU A   1       1.138  -0.829  -0.791  0.00  0.00    +0.138 C 
BRANCH   6   7
ATOM      7  N   LEU A   1       0.493  -2.156  -0.746  0.00  0.00    -0.320 NA
ATOM      8  H1  LEU A   1       0.904  -2.731  -1.484  0.00  0.00    +0.119 HD
ATOM      9  H2  LEU A   1       0.806  -2.619   0.113  0.00  0.00    +0.119 HD
ENDBRANCH   6   7
BRANCH   6  10
ATOM     10  CB  LEU A   1       0.666   0.062   0.369  0.00  0.00    +0.031 C 
BRANCH  10  11
ATOM     11  CG  LEU A   1      -0.857   0.290   0.451  0.00  0.00    -0.015 C 
ATOM     12  CD2 LEU A   1      -1.187   1.129   1.689  0.00  0.00    +0.007 C 
ATOM     13  CD1 LEU A   1      -1.412   0.973  -0.799  0.00  0.00    +0.007 C 
ENDBRANCH  10  11
ENDBRANCH   6  10
ENDBRANCH   2   6
ENDBRANCH   1   3
BRANCH   1  14
ATOM     14  C   GLN A   2       5.268   1.609  -1.102  0.00  0.00    +0.234 C 
ATOM     15  N   ALA A   3       6.484   1.869  -0.525  0.00  0.00    -0.303 N 
ATOM     16  H   ALA A   3       7.008   1.133  -0.055  0.00  0.00    +0.149 HD
ATOM     17  O   GLN A   2       4.581   2.477  -1.638  0.00  0.00    -0.274 OA
BRANCH  15  18
ATOM     18  CA  ALA A   3       7.130   3.173  -0.592  0.00  0.00    +0.156 C 
ATOM     19  CB  ALA A   3       6.642   4.107   0.505  0.00  0.00    +0.038 C 
BRANCH  18  20
ATOM     20  C   ALA A   3       8.639   2.922  -0.451  0.00  0.00    +0.234 C 
ATOM     21  N   ILE A   4       9.442   3.886  -1.005  0.00  0.00    -0.304 N 
ATOM     22  H   ILE A   4       9.036   4.737  -1.387  0.00  0.00    +0.149 HD
ATOM     23  O   ALA A   3       9.082   1.925   0.119  0.00  0.00    -0.274 OA
BRANCH  21  24
ATOM     24  CA  ILE A   4      10.901   3.816  -0.969  0.00  0.00    +0.139 C 
BRANCH  24  25
ATOM     25  C   ILE A   4      11.357   5.258  -0.755  0.00  0.00    +0.245 C 
ATOM     26  O   ILE A   4      10.686   6.239  -1.074  0.00  0.00    -0.299 OA
ENDBRANCH  24  25
BRANCH  24  27
ATOM     27  CB  ILE A   4      11.509   3.222  -2.267  0.00  0.00    +0.013 C 
ATOM     28  CG2 ILE A   4      13.042   3.169  -2.169  0.00  0.00    +0.010 C 
BRANCH  27  29
ATOM     29  CG1 ILE A   4      10.931   1.820  -2.576  0.00  0.00    +0.002 C 
ATOM     30  CD1 ILE A   4      11.468   1.180  -3.849  0.00  0.00    +0.004 C 
ENDBRANCH  27  29
ENDBRANCH  24  27
ENDBRANCH  21  24
ENDBRANCH  18  20
ENDBRANCH  15  18
ENDBRANCH   1  14
BRANCH   1  31
ATOM     31  CB  GLN A   2       5.401  -0.603  -2.334  0.00  0.00    +0.041 C 
BRANCH  31  32
ATOM     32  CG  GLN A   2       6.927  -0.660  -2.391  0.00  0.00    +0.098 C 
BRANCH  32  33
ATOM     33  CD  GLN A   2       7.469  -1.688  -3.363  0.00  0.00    +0.211 C 
ATOM     34  OE1 GLN A   2       8.449  -2.381  -3.112  0.00  0.00    -0.276 OA
ATOM     35  NE2 GLN A   2       6.877  -1.751  -4.587  0.00  0.00    -0.329 N 
ATOM     36 HE21 GLN A   2       6.006  -1.296  -4.815  0.00  0.00    +0.145 HD
ATOM     37 HE22 GLN A   2       7.225  -2.457  -5.224  0.00  0.00    +0.145 HD
ENDBRANCH  32  33
ENDBRANCH  31  32
ENDBRANCH   1  31
TORSDOF 15
