REMARK  Name = LQAV-mmff94.pdb
REMARK  19 active torsions:
REMARK  status: ('A' for Active; 'I' for Inactive)
REMARK    1  A    between atoms: _1  and  _2
REMARK    2  A    between atoms: _2  and  _3
REMARK    3  A    between atoms: _2  and  _5
REMARK    4  A    between atoms: _5  and  _6
REMARK    5  A    between atoms: _6  and  _7
REMARK    6  A    between atoms: _6  and  _8
REMARK    7  A    between atoms: _20  and  _21
REMARK    8  A    between atoms: _21  and  _22
REMARK    9  A    between atoms: _21  and  _24
REMARK   10  A    between atoms: _24  and  _25
REMARK   11  A    between atoms: _25  and  _26
REMARK   12  A    between atoms: _37  and  _38
REMARK   13  A    between atoms: _38  and  _39
REMARK   14  A    between atoms: _38  and  _41
REMARK   15  A    between atoms: _47  and  _48
REMARK   16  A    between atoms: _48  and  _49
REMARK   17  A    between atoms: _48  and  _51
REMARK   18  A    between atoms: _51  and  _52
REMARK   19  A    between atoms: _51  and  _53
REMARK                            x       y       z     vdW  Elec       q    Type
REMARK                         _______ _______ _______ _____ _____    ______ ____
ROOT
ATOM      1  CA  GLN A   2       4.880   0.100  -1.108  0.00  0.00    +0.159 C 
ENDROOT
BRANCH   1   3
ATOM      2  C   LEU A   1       2.695  -1.016  -0.716  0.00  0.00    +0.230 C 
ATOM      3  N   GLN A   2       3.419   0.089  -1.090  0.00  0.00    -0.303 N 
ATOM      4  H   GLN A   2       2.949   0.932  -1.408  0.00  0.00    +0.149 HD
ATOM      5  O   LEU A   1       3.226  -2.069  -0.366  0.00  0.00    -0.274 OA
BRANCH   2   6
ATOM      6  CA  LEU A   1       1.160  -0.835  -0.786  0.00  0.00    +0.138 C 
BRANCH   6   7
ATOM      7  N   LEU A   1       0.511  -2.161  -0.743  0.00  0.00    -0.320 NA
ATOM      8  H1  LEU A   1       0.923  -2.737  -1.481  0.00  0.00    +0.119 HD
ATOM      9  H2  LEU A   1       0.820  -2.625   0.115  0.00  0.00    +0.119 HD
ENDBRANCH   6   7
BRANCH   6  10
ATOM     10  CB  LEU A   1       0.688   0.056   0.374  0.00  0.00    +0.031 C 
BRANCH  10  11
ATOM     11  CG  LEU A   1      -0.836   0.286   0.453  0.00  0.00    -0.015 C 
ATOM     12  CD2 LEU A   1      -1.168   1.124   1.691  0.00  0.00    +0.007 C 
ATOM     13  CD1 LEU A   1      -1.386   0.972  -0.798  0.00  0.00    +0.007 C 
ENDBRANCH  10  11
ENDBRANCH   6  10
ENDBRANCH   2   6
ENDBRANCH   1   3
BRANCH   1  14
ATOM     14  C   GLN A   2       5.305   1.580  -1.121  0.00  0.00    +0.234 C 
ATOM     15  O   GLN A   2       4.608   2.455  -1.634  0.00  0.00    -0.274 OA
ATOM     16  N   ALA A   3       6.539   1.831  -0.578  0.00  0.00    -0.303 N 
ATOM     17  H   ALA A   3       7.075   1.091  -0.131  0.00  0.00    +0.149 HD
BRANCH  16  18
ATOM     18  CA  ALA A   3       7.178   3.139  -0.641  0.00  0.00    +0.156 C 
ATOM     19  CB  ALA A   3       6.701   4.057   0.474  0.00  0.00    +0.038 C 
BRANCH  18  20
ATOM     20  C   ALA A   3       8.693   2.902  -0.531  0.00  0.00    +0.234 C 
ATOM     21  N   VAL A   4       9.476   3.912  -1.031  0.00  0.00    -0.304 N 
ATOM     22  H   VAL A   4       9.050   4.776  -1.358  0.00  0.00    +0.149 HD
ATOM     23  O   ALA A   3       9.157   1.882  -0.021  0.00  0.00    -0.274 OA
BRANCH  21  24
ATOM     24  CA  VAL A   4      10.936   3.880  -0.988  0.00  0.00    +0.138 C 
BRANCH  24  25
ATOM     25  CB  VAL A   4      11.556   3.355  -2.302  0.00  0.00    +0.010 C 
ATOM     26  CG2 VAL A   4      11.099   1.928  -2.627  0.00  0.00    +0.009 C 
ATOM     27  CG1 VAL A   4      13.089   3.380  -2.253  0.00  0.00    +0.009 C 
ENDBRANCH  24  25
BRANCH  24  28
ATOM     28  C   VAL A   4      11.361   5.321  -0.719  0.00  0.00    +0.245 C 
ATOM     29  O   VAL A   4      10.656   6.297  -0.974  0.00  0.00    -0.299 OA
ENDBRANCH  24  28
ENDBRANCH  21  24
ENDBRANCH  18  20
ENDBRANCH  16  18
ENDBRANCH   1  14
BRANCH   1  30
ATOM     30  CB  GLN A   2       5.406  -0.637  -2.350  0.00  0.00    +0.041 C 
BRANCH  30  31
ATOM     31  CG  GLN A   2       6.930  -0.725  -2.416  0.00  0.00    +0.098 C 
BRANCH  31  32
ATOM     32  CD  GLN A   2       7.438  -1.770  -3.387  0.00  0.00    +0.211 C 
ATOM     33  OE1 GLN A   2       8.383  -2.508  -3.129  0.00  0.00    -0.276 OA
ATOM     34  NE2 GLN A   2       6.856  -1.801  -4.617  0.00  0.00    -0.329 N 
ATOM     35 HE21 GLN A   2       6.011  -1.302  -4.852  0.00  0.00    +0.145 HD
ATOM     36 HE22 GLN A   2       7.179  -2.517  -5.256  0.00  0.00    +0.145 HD
ENDBRANCH  31  32
ENDBRANCH  30  31
ENDBRANCH   1  30
TORSDOF 14
