MODEL 1
REMARK VINA RESULT:      -6.5      0.000      0.000
REMARK  Name = LQAV-mmff94.pdb
REMARK  19 active torsions:
REMARK  status: ('A' for Active; 'I' for Inactive)
REMARK    1  A    between atoms: _1  and  _2
REMARK    2  A    between atoms: _2  and  _3
REMARK    3  A    between atoms: _2  and  _5
REMARK    4  A    between atoms: _5  and  _6
REMARK    5  A    between atoms: _6  and  _7
REMARK    6  A    between atoms: _6  and  _8
REMARK    7  A    between atoms: _20  and  _21
REMARK    8  A    between atoms: _21  and  _22
REMARK    9  A    between atoms: _21  and  _24
REMARK   10  A    between atoms: _24  and  _25
REMARK   11  A    between atoms: _25  and  _26
REMARK   12  A    between atoms: _37  and  _38
REMARK   13  A    between atoms: _38  and  _39
REMARK   14  A    between atoms: _38  and  _41
REMARK   15  A    between atoms: _47  and  _48
REMARK   16  A    between atoms: _48  and  _49
REMARK   17  A    between atoms: _48  and  _51
REMARK   18  A    between atoms: _51  and  _52
REMARK   19  A    between atoms: _51  and  _53
REMARK                            x       y       z     vdW  Elec       q    Type
REMARK                         _______ _______ _______ _____ _____    ______ ____
ROOT
ATOM      1  CA  GLN A   2       7.638   0.375  21.156  0.00  0.00    +0.159 C 
ENDROOT
BRANCH   1   3
ATOM      2  C   LEU A   1       6.834   2.661  21.706  0.00  0.00    +0.230 C 
ATOM      3  N   GLN A   2       7.864   1.771  21.523  0.00  0.00    -0.303 N 
ATOM      4  H   GLN A   2       8.830   2.076  21.601  0.00  0.00    +0.149 HD
ATOM      5  O   LEU A   1       5.653   2.342  21.579  0.00  0.00    -0.274 OA
BRANCH   2   6
ATOM      6  CA  LEU A   1       7.279   4.097  22.068  0.00  0.00    +0.138 C 
BRANCH   6   7
ATOM      7  N   LEU A   1       6.099   4.884  22.480  0.00  0.00    -0.320 NA
ATOM      8  H1  LEU A   1       5.390   4.794  21.748  0.00  0.00    +0.119 HD
ATOM      9  H2  LEU A   1       5.673   4.403  23.276  0.00  0.00    +0.119 HD
ENDBRANCH   6   7
BRANCH   6  10
ATOM     10  CB  LEU A   1       8.335   4.049  23.184  0.00  0.00    +0.031 C 
BRANCH  10  11
ATOM     11  CG  LEU A   1       7.777   4.070  24.623  0.00  0.00    -0.015 C 
ATOM     12  CD2 LEU A   1       7.993   2.704  25.280  0.00  0.00    +0.007 C 
ATOM     13  CD1 LEU A   1       8.418   5.162  25.479  0.00  0.00    +0.007 C 
ENDBRANCH  10  11
ENDBRANCH   6  10
ENDBRANCH   2   6
ENDBRANCH   1   3
BRANCH   1  14
ATOM     14  C   GLN A   2       8.691  -0.451  21.918  0.00  0.00    +0.234 C 
ATOM     15  O   GLN A   2       8.959  -1.612  21.609  0.00  0.00    -0.274 OA
ATOM     16  N   ALA A   3       9.252   0.182  22.997  0.00  0.00    -0.303 N 
ATOM     17  H   ALA A   3       9.035   1.154  23.205  0.00  0.00    +0.149 HD
BRANCH  16  18
ATOM     18  CA  ALA A   3      10.147  -0.490  23.930  0.00  0.00    +0.156 C 
ATOM     19  CB  ALA A   3      11.007   0.499  24.703  0.00  0.00    +0.038 C 
BRANCH  18  20
ATOM     20  C   ALA A   3       9.263  -1.300  24.892  0.00  0.00    +0.234 C 
ATOM     21  N   VAL A   4       9.169  -2.639  24.605  0.00  0.00    -0.304 N 
ATOM     22  H   VAL A   4       9.729  -3.043  23.858  0.00  0.00    +0.149 HD
ATOM     23  O   ALA A   3       8.695  -0.777  25.851  0.00  0.00    -0.274 OA
BRANCH  21  24
ATOM     24  CA  VAL A   4       8.400  -3.574  25.422  0.00  0.00    +0.138 C 
BRANCH  24  25
ATOM     25  CB  VAL A   4       7.125  -4.076  24.708  0.00  0.00    +0.010 C 
ATOM     26  CG2 VAL A   4       6.528  -5.311  25.392  0.00  0.00    +0.009 C 
ATOM     27  CG1 VAL A   4       7.399  -4.415  23.237  0.00  0.00    +0.009 C 
ENDBRANCH  24  25
BRANCH  24  28
ATOM     28  C   VAL A   4       9.354  -4.728  25.717  0.00  0.00    +0.245 C 
ATOM     29  O   VAL A   4      10.299  -5.032  24.990  0.00  0.00    -0.299 OA
ENDBRANCH  24  28
ENDBRANCH  21  24
ENDBRANCH  18  20
ENDBRANCH  16  18
ENDBRANCH   1  14
BRANCH   1  30
ATOM     30  CB  GLN A   2       7.784   0.190  19.638  0.00  0.00    +0.041 C 
BRANCH  30  31
ATOM     31  CG  GLN A   2       6.474  -0.151  18.929  0.00  0.00    +0.098 C 
BRANCH  31  32
ATOM     32  CD  GLN A   2       5.867   1.015  18.177  0.00  0.00    +0.211 C 
ATOM     33  OE1 GLN A   2       6.337   1.440  17.127  0.00  0.00    -0.276 OA
ATOM     34  NE2 GLN A   2       4.814   1.645  18.766  0.00  0.00    -0.329 N 
ATOM     35 HE21 GLN A   2       4.317   1.282  19.565  0.00  0.00    +0.145 HD
ATOM     36 HE22 GLN A   2       4.394   2.408  18.249  0.00  0.00    +0.145 HD
ENDBRANCH  31  32
ENDBRANCH  30  31
ENDBRANCH   1  30
TORSDOF 14
ENDMDL
MODEL 2
REMARK VINA RESULT:      -6.3      2.729      5.301
REMARK  Name = LQAV-mmff94.pdb
REMARK  19 active torsions:
REMARK  status: ('A' for Active; 'I' for Inactive)
REMARK    1  A    between atoms: _1  and  _2
REMARK    2  A    between atoms: _2  and  _3
REMARK    3  A    between atoms: _2  and  _5
REMARK    4  A    between atoms: _5  and  _6
REMARK    5  A    between atoms: _6  and  _7
REMARK    6  A    between atoms: _6  and  _8
REMARK    7  A    between atoms: _20  and  _21
REMARK    8  A    between atoms: _21  and  _22
REMARK    9  A    between atoms: _21  and  _24
REMARK   10  A    between atoms: _24  and  _25
REMARK   11  A    between atoms: _25  and  _26
REMARK   12  A    between atoms: _37  and  _38
REMARK   13  A    between atoms: _38  and  _39
REMARK   14  A    between atoms: _38  and  _41
REMARK   15  A    between atoms: _47  and  _48
REMARK   16  A    between atoms: _48  and  _49
REMARK   17  A    between atoms: _48  and  _51
REMARK   18  A    between atoms: _51  and  _52
REMARK   19  A    between atoms: _51  and  _53
REMARK                            x       y       z     vdW  Elec       q    Type
REMARK                         _______ _______ _______ _____ _____    ______ ____
ROOT
ATOM      1  CA  GLN A   2       9.146  -0.663  24.498  0.00  0.00    +0.159 C 
ENDROOT
BRANCH   1   3
ATOM      2  C   LEU A   1       8.427  -0.908  22.132  0.00  0.00    +0.230 C 
ATOM      3  N   GLN A   2       8.122  -0.715  23.457  0.00  0.00    -0.303 N 
ATOM      4  H   GLN A   2       7.161  -0.560  23.749  0.00  0.00    +0.149 HD
ATOM      5  O   LEU A   1       9.581  -1.057  21.733  0.00  0.00    -0.274 OA
BRANCH   2   6
ATOM      6  CA  LEU A   1       7.206  -0.909  21.182  0.00  0.00    +0.138 C 
BRANCH   6   7
ATOM      7  N   LEU A   1       6.155  -1.783  21.741  0.00  0.00    -0.320 NA
ATOM      8  H1  LEU A   1       5.391  -1.187  22.069  0.00  0.00    +0.119 HD
ATOM      9  H2  LEU A   1       5.734  -2.293  20.960  0.00  0.00    +0.119 HD
ENDBRANCH   6   7
BRANCH   6  10
ATOM     10  CB  LEU A   1       6.695   0.528  20.992  0.00  0.00    +0.031 C 
BRANCH  10  11
ATOM     11  CG  LEU A   1       6.618   1.014  19.529  0.00  0.00    -0.015 C 
ATOM     12  CD2 LEU A   1       7.453   0.093  18.635  0.00  0.00    +0.007 C 
ATOM     13  CD1 LEU A   1       5.180   1.073  19.011  0.00  0.00    +0.007 C 
ENDBRANCH  10  11
ENDBRANCH   6  10
ENDBRANCH   2   6
ENDBRANCH   1   3
BRANCH   1  14
ATOM     14  C   GLN A   2       8.568  -1.408  25.715  0.00  0.00    +0.234 C 
ATOM     15  O   GLN A   2       8.935  -1.166  26.865  0.00  0.00    -0.274 OA
ATOM     16  N   ALA A   3       7.668  -2.398  25.412  0.00  0.00    -0.303 N 
ATOM     17  H   ALA A   3       7.359  -2.550  24.455  0.00  0.00    +0.149 HD
BRANCH  16  18
ATOM     18  CA  ALA A   3       7.135  -3.313  26.413  0.00  0.00    +0.156 C 
ATOM     19  CB  ALA A   3       5.833  -2.803  27.011  0.00  0.00    +0.038 C 
BRANCH  18  20
ATOM     20  C   ALA A   3       6.911  -4.662  25.710  0.00  0.00    +0.234 C 
ATOM     21  N   VAL A   4       6.322  -4.582  24.473  0.00  0.00    -0.304 N 
ATOM     22  H   VAL A   4       6.146  -3.674  24.048  0.00  0.00    +0.149 HD
ATOM     23  O   ALA A   3       7.248  -5.728  26.225  0.00  0.00    -0.274 OA
BRANCH  21  24
ATOM     24  CA  VAL A   4       6.057  -5.753  23.642  0.00  0.00    +0.138 C 
BRANCH  24  25
ATOM     25  CB  VAL A   4       4.555  -6.109  23.580  0.00  0.00    +0.010 C 
ATOM     26  CG2 VAL A   4       3.664  -4.861  23.609  0.00  0.00    +0.009 C 
ATOM     27  CG1 VAL A   4       4.145  -7.031  24.735  0.00  0.00    +0.009 C 
ENDBRANCH  24  25
BRANCH  24  28
ATOM     28  C   VAL A   4       6.593  -5.393  22.259  0.00  0.00    +0.245 C 
ATOM     29  O   VAL A   4       7.380  -4.470  22.053  0.00  0.00    -0.299 OA
ENDBRANCH  24  28
ENDBRANCH  21  24
ENDBRANCH  18  20
ENDBRANCH  16  18
ENDBRANCH   1  14
BRANCH   1  30
ATOM     30  CB  GLN A   2       9.478   0.796  24.850  0.00  0.00    +0.041 C 
BRANCH  30  31
ATOM     31  CG  GLN A   2      10.713   1.338  24.132  0.00  0.00    +0.098 C 
BRANCH  31  32
ATOM     32  CD  GLN A   2      10.412   2.472  23.175  0.00  0.00    +0.211 C 
ATOM     33  OE1 GLN A   2      10.354   3.643  23.536  0.00  0.00    -0.276 OA
ATOM     34  NE2 GLN A   2      10.111   2.132  21.892  0.00  0.00    -0.329 N 
ATOM     35 HE21 GLN A   2      10.246   1.208  21.509  0.00  0.00    +0.145 HD
ATOM     36 HE22 GLN A   2       9.935   2.893  21.248  0.00  0.00    +0.145 HD
ENDBRANCH  31  32
ENDBRANCH  30  31
ENDBRANCH   1  30
TORSDOF 14
ENDMDL
MODEL 3
REMARK VINA RESULT:      -6.3      2.138      7.160
REMARK  Name = LQAV-mmff94.pdb
REMARK  19 active torsions:
REMARK  status: ('A' for Active; 'I' for Inactive)
REMARK    1  A    between atoms: _1  and  _2
REMARK    2  A    between atoms: _2  and  _3
REMARK    3  A    between atoms: _2  and  _5
REMARK    4  A    between atoms: _5  and  _6
REMARK    5  A    between atoms: _6  and  _7
REMARK    6  A    between atoms: _6  and  _8
REMARK    7  A    between atoms: _20  and  _21
REMARK    8  A    between atoms: _21  and  _22
REMARK    9  A    between atoms: _21  and  _24
REMARK   10  A    between atoms: _24  and  _25
REMARK   11  A    between atoms: _25  and  _26
REMARK   12  A    between atoms: _37  and  _38
REMARK   13  A    between atoms: _38  and  _39
REMARK   14  A    between atoms: _38  and  _41
REMARK   15  A    between atoms: _47  and  _48
REMARK   16  A    between atoms: _48  and  _49
REMARK   17  A    between atoms: _48  and  _51
REMARK   18  A    between atoms: _51  and  _52
REMARK   19  A    between atoms: _51  and  _53
REMARK                            x       y       z     vdW  Elec       q    Type
REMARK                         _______ _______ _______ _____ _____    ______ ____
ROOT
ATOM      1  CA  GLN A   2       8.397  -0.286  25.051  0.00  0.00    +0.159 C 
ENDROOT
BRANCH   1   3
ATOM      2  C   LEU A   1       8.726  -2.748  25.091  0.00  0.00    +0.230 C 
ATOM      3  N   GLN A   2       8.688  -1.562  24.401  0.00  0.00    -0.303 N 
ATOM      4  H   GLN A   2       8.905  -1.534  23.409  0.00  0.00    +0.149 HD
ATOM      5  O   LEU A   1       8.512  -2.819  26.301  0.00  0.00    -0.274 OA
BRANCH   2   6
ATOM      6  CA  LEU A   1       9.075  -3.985  24.229  0.00  0.00    +0.138 C 
BRANCH   6   7
ATOM      7  N   LEU A   1      10.007  -4.853  24.977  0.00  0.00    -0.320 NA
ATOM      8  H1  LEU A   1      10.670  -4.250  25.471  0.00  0.00    +0.119 HD
ATOM      9  H2  LEU A   1       9.477  -5.288  25.737  0.00  0.00    +0.119 HD
ENDBRANCH   6   7
BRANCH   6  10
ATOM     10  CB  LEU A   1       7.788  -4.738  23.856  0.00  0.00    +0.031 C 
BRANCH  10  11
ATOM     11  CG  LEU A   1       7.270  -4.492  22.423  0.00  0.00    -0.015 C 
ATOM     12  CD2 LEU A   1       7.052  -5.833  21.716  0.00  0.00    +0.007 C 
ATOM     13  CD1 LEU A   1       5.974  -3.681  22.405  0.00  0.00    +0.007 C 
ENDBRANCH  10  11
ENDBRANCH   6  10
ENDBRANCH   2   6
ENDBRANCH   1   3
BRANCH   1  14
ATOM     14  C   GLN A   2       7.100   0.243  24.410  0.00  0.00    +0.234 C 
ATOM     15  O   GLN A   2       6.260  -0.510  23.919  0.00  0.00    -0.274 OA
ATOM     16  N   ALA A   3       6.990   1.610  24.375  0.00  0.00    -0.303 N 
ATOM     17  H   ALA A   3       7.686   2.203  24.820  0.00  0.00    +0.149 HD
BRANCH  16  18
ATOM     18  CA  ALA A   3       5.915   2.297  23.671  0.00  0.00    +0.156 C 
ATOM     19  CB  ALA A   3       5.606   3.650  24.292  0.00  0.00    +0.038 C 
BRANCH  18  20
ATOM     20  C   ALA A   3       6.371   2.466  22.213  0.00  0.00    +0.234 C 
ATOM     21  N   VAL A   4       5.911   1.507  21.346  0.00  0.00    -0.304 N 
ATOM     22  H   VAL A   4       5.246   0.806  21.664  0.00  0.00    +0.149 HD
ATOM     23  O   ALA A   3       7.088   3.402  21.860  0.00  0.00    -0.274 OA
BRANCH  21  24
ATOM     24  CA  VAL A   4       6.214   1.518  19.917  0.00  0.00    +0.138 C 
BRANCH  24  25
ATOM     25  CB  VAL A   4       7.079   0.313  19.485  0.00  0.00    +0.010 C 
ATOM     26  CG2 VAL A   4       6.327  -0.628  18.537  0.00  0.00    +0.009 C 
ATOM     27  CG1 VAL A   4       7.565  -0.495  20.695  0.00  0.00    +0.009 C 
ENDBRANCH  24  25
BRANCH  24  28
ATOM     28  C   VAL A   4       4.856   1.495  19.219  0.00  0.00    +0.245 C 
ATOM     29  O   VAL A   4       3.888   2.157  19.593  0.00  0.00    -0.299 OA
ENDBRANCH  24  28
ENDBRANCH  21  24
ENDBRANCH  18  20
ENDBRANCH  16  18
ENDBRANCH   1  14
BRANCH   1  30
ATOM     30  CB  GLN A   2       9.558   0.699  24.842  0.00  0.00    +0.041 C 
BRANCH  30  31
ATOM     31  CG  GLN A   2      10.163   0.652  23.439  0.00  0.00    +0.098 C 
BRANCH  31  32
ATOM     32  CD  GLN A   2      10.281   2.011  22.782  0.00  0.00    +0.211 C 
ATOM     33  OE1 GLN A   2      10.662   3.007  23.388  0.00  0.00    -0.276 OA
ATOM     34  NE2 GLN A   2       9.855   2.110  21.493  0.00  0.00    -0.329 N 
ATOM     35 HE21 GLN A   2       9.637   1.316  20.910  0.00  0.00    +0.145 HD
ATOM     36 HE22 GLN A   2       9.959   3.013  21.047  0.00  0.00    +0.145 HD
ENDBRANCH  31  32
ENDBRANCH  30  31
ENDBRANCH   1  30
TORSDOF 14
ENDMDL
MODEL 4
REMARK VINA RESULT:      -6.3      2.583      6.628
REMARK  Name = LQAV-mmff94.pdb
REMARK  19 active torsions:
REMARK  status: ('A' for Active; 'I' for Inactive)
REMARK    1  A    between atoms: _1  and  _2
REMARK    2  A    between atoms: _2  and  _3
REMARK    3  A    between atoms: _2  and  _5
REMARK    4  A    between atoms: _5  and  _6
REMARK    5  A    between atoms: _6  and  _7
REMARK    6  A    between atoms: _6  and  _8
REMARK    7  A    between atoms: _20  and  _21
REMARK    8  A    between atoms: _21  and  _22
REMARK    9  A    between atoms: _21  and  _24
REMARK   10  A    between atoms: _24  and  _25
REMARK   11  A    between atoms: _25  and  _26
REMARK   12  A    between atoms: _37  and  _38
REMARK   13  A    between atoms: _38  and  _39
REMARK   14  A    between atoms: _38  and  _41
REMARK   15  A    between atoms: _47  and  _48
REMARK   16  A    between atoms: _48  and  _49
REMARK   17  A    between atoms: _48  and  _51
REMARK   18  A    between atoms: _51  and  _52
REMARK   19  A    between atoms: _51  and  _53
REMARK                            x       y       z     vdW  Elec       q    Type
REMARK                         _______ _______ _______ _____ _____    ______ ____
ROOT
ATOM      1  CA  GLN A   2       9.405  -3.877  24.280  0.00  0.00    +0.159 C 
ENDROOT
BRANCH   1   3
ATOM      2  C   LEU A   1       9.850  -1.445  24.027  0.00  0.00    +0.230 C 
ATOM      3  N   GLN A   2       9.188  -2.478  24.643  0.00  0.00    -0.303 N 
ATOM      4  H   GLN A   2       8.545  -2.297  25.409  0.00  0.00    +0.149 HD
ATOM      5  O   LEU A   1      10.667  -1.626  23.126  0.00  0.00    -0.274 OA
BRANCH   2   6
ATOM      6  CA  LEU A   1       9.498  -0.040  24.570  0.00  0.00    +0.138 C 
BRANCH   6   7
ATOM      7  N   LEU A   1       9.005  -0.162  25.957  0.00  0.00    -0.320 NA
ATOM      8  H1  LEU A   1       8.652   0.752  26.247  0.00  0.00    +0.119 HD
ATOM      9  H2  LEU A   1       8.161  -0.741  25.931  0.00  0.00    +0.119 HD
ENDBRANCH   6   7
BRANCH   6  10
ATOM     10  CB  LEU A   1      10.734   0.871  24.495  0.00  0.00    +0.031 C 
BRANCH  10  11
ATOM     11  CG  LEU A   1      10.516   2.225  23.788  0.00  0.00    -0.015 C 
ATOM     12  CD2 LEU A   1      10.322   1.998  22.286  0.00  0.00    +0.007 C 
ATOM     13  CD1 LEU A   1       9.318   2.990  24.353  0.00  0.00    +0.007 C 
ENDBRANCH  10  11
ENDBRANCH   6  10
ENDBRANCH   2   6
ENDBRANCH   1   3
BRANCH   1  14
ATOM     14  C   GLN A   2       8.170  -4.315  23.472  0.00  0.00    +0.234 C 
ATOM     15  O   GLN A   2       8.008  -5.479  23.106  0.00  0.00    -0.274 OA
ATOM     16  N   ALA A   3       7.307  -3.302  23.141  0.00  0.00    -0.303 N 
ATOM     17  H   ALA A   3       7.452  -2.357  23.488  0.00  0.00    +0.149 HD
BRANCH  16  18
ATOM     18  CA  ALA A   3       6.170  -3.492  22.250  0.00  0.00    +0.156 C 
ATOM     19  CB  ALA A   3       4.874  -3.693  23.021  0.00  0.00    +0.038 C 
BRANCH  18  20
ATOM     20  C   ALA A   3       6.081  -2.238  21.365  0.00  0.00    +0.234 C 
ATOM     21  N   VAL A   4       6.684  -1.119  21.882  0.00  0.00    -0.304 N 
ATOM     22  H   VAL A   4       7.219  -1.179  22.745  0.00  0.00    +0.149 HD
ATOM     23  O   ALA A   3       5.515  -2.252  20.272  0.00  0.00    -0.274 OA
BRANCH  21  24
ATOM     24  CA  VAL A   4       6.729   0.157  21.173  0.00  0.00    +0.138 C 
BRANCH  24  25
ATOM     25  CB  VAL A   4       6.847   1.363  22.132  0.00  0.00    +0.010 C 
ATOM     26  CG2 VAL A   4       6.298   1.047  23.528  0.00  0.00    +0.009 C 
ATOM     27  CG1 VAL A   4       6.114   2.594  21.584  0.00  0.00    +0.009 C 
ENDBRANCH  24  25
BRANCH  24  28
ATOM     28  C   VAL A   4       7.946   0.065  20.257  0.00  0.00    +0.245 C 
ATOM     29  O   VAL A   4       8.980  -0.531  20.557  0.00  0.00    -0.299 OA
ENDBRANCH  24  28
ENDBRANCH  21  24
ENDBRANCH  18  20
ENDBRANCH  16  18
ENDBRANCH   1  14
BRANCH   1  30
ATOM     30  CB  GLN A   2       9.574  -4.738  25.542  0.00  0.00    +0.041 C 
BRANCH  30  31
ATOM     31  CG  GLN A   2       8.752  -4.253  26.734  0.00  0.00    +0.098 C 
BRANCH  31  32
ATOM     32  CD  GLN A   2       7.434  -4.979  26.901  0.00  0.00    +0.211 C 
ATOM     33  OE1 GLN A   2       6.379  -4.546  26.450  0.00  0.00    -0.276 OA
ATOM     34  NE2 GLN A   2       7.446  -6.107  27.663  0.00  0.00    -0.329 N 
ATOM     35 HE21 GLN A   2       8.288  -6.571  27.968  0.00  0.00    +0.145 HD
ATOM     36 HE22 GLN A   2       6.569  -6.606  27.753  0.00  0.00    +0.145 HD
ENDBRANCH  31  32
ENDBRANCH  30  31
ENDBRANCH   1  30
TORSDOF 14
ENDMDL
MODEL 5
REMARK VINA RESULT:      -6.3      2.350      5.310
REMARK  Name = LQAV-mmff94.pdb
REMARK  19 active torsions:
REMARK  status: ('A' for Active; 'I' for Inactive)
REMARK    1  A    between atoms: _1  and  _2
REMARK    2  A    between atoms: _2  and  _3
REMARK    3  A    between atoms: _2  and  _5
REMARK    4  A    between atoms: _5  and  _6
REMARK    5  A    between atoms: _6  and  _7
REMARK    6  A    between atoms: _6  and  _8
REMARK    7  A    between atoms: _20  and  _21
REMARK    8  A    between atoms: _21  and  _22
REMARK    9  A    between atoms: _21  and  _24
REMARK   10  A    between atoms: _24  and  _25
REMARK   11  A    between atoms: _25  and  _26
REMARK   12  A    between atoms: _37  and  _38
REMARK   13  A    between atoms: _38  and  _39
REMARK   14  A    between atoms: _38  and  _41
REMARK   15  A    between atoms: _47  and  _48
REMARK   16  A    between atoms: _48  and  _49
REMARK   17  A    between atoms: _48  and  _51
REMARK   18  A    between atoms: _51  and  _52
REMARK   19  A    between atoms: _51  and  _53
REMARK                            x       y       z     vdW  Elec       q    Type
REMARK                         _______ _______ _______ _____ _____    ______ ____
ROOT
ATOM      1  CA  GLN A   2       9.532  -1.010  24.046  0.00  0.00    +0.159 C 
ENDROOT
BRANCH   1   3
ATOM      2  C   LEU A   1       8.668  -0.232  21.850  0.00  0.00    +0.230 C 
ATOM      3  N   GLN A   2       8.460  -0.539  23.172  0.00  0.00    -0.303 N 
ATOM      4  H   GLN A   2       7.546  -0.406  23.596  0.00  0.00    +0.149 HD
ATOM      5  O   LEU A   1       9.768  -0.338  21.310  0.00  0.00    -0.274 OA
BRANCH   2   6
ATOM      6  CA  LEU A   1       7.412   0.272  21.100  0.00  0.00    +0.138 C 
BRANCH   6   7
ATOM      7  N   LEU A   1       7.050   1.612  21.603  0.00  0.00    -0.320 NA
ATOM      8  H1  LEU A   1       7.656   1.824  22.399  0.00  0.00    +0.119 HD
ATOM      9  H2  LEU A   1       7.344   2.293  20.899  0.00  0.00    +0.119 HD
ENDBRANCH   6   7
BRANCH   6  10
ATOM     10  CB  LEU A   1       7.685   0.298  19.588  0.00  0.00    +0.031 C 
BRANCH  10  11
ATOM     11  CG  LEU A   1       6.517  -0.176  18.697  0.00  0.00    -0.015 C 
ATOM     12  CD2 LEU A   1       5.730  -1.273  19.419  0.00  0.00    +0.007 C 
ATOM     13  CD1 LEU A   1       5.578   0.968  18.314  0.00  0.00    +0.007 C 
ENDBRANCH  10  11
ENDBRANCH   6  10
ENDBRANCH   2   6
ENDBRANCH   1   3
BRANCH   1  14
ATOM     14  C   GLN A   2       8.971  -2.223  24.810  0.00  0.00    +0.234 C 
ATOM     15  O   GLN A   2       8.236  -2.096  25.789  0.00  0.00    -0.274 OA
ATOM     16  N   ALA A   3       9.403  -3.443  24.355  0.00  0.00    -0.303 N 
ATOM     17  H   ALA A   3       9.982  -3.516  23.522  0.00  0.00    +0.149 HD
BRANCH  16  18
ATOM     18  CA  ALA A   3       9.108  -4.692  25.044  0.00  0.00    +0.156 C 
ATOM     19  CB  ALA A   3       9.259  -4.558  26.551  0.00  0.00    +0.038 C 
BRANCH  18  20
ATOM     20  C   ALA A   3       7.663  -5.073  24.680  0.00  0.00    +0.234 C 
ATOM     21  N   VAL A   4       7.363  -4.998  23.343  0.00  0.00    -0.304 N 
ATOM     22  H   VAL A   4       8.093  -4.791  22.665  0.00  0.00    +0.149 HD
ATOM     23  O   ALA A   3       6.849  -5.426  25.533  0.00  0.00    -0.274 OA
BRANCH  21  24
ATOM     24  CA  VAL A   4       6.052  -5.349  22.803  0.00  0.00    +0.138 C 
BRANCH  24  25
ATOM     25  CB  VAL A   4       5.105  -4.132  22.708  0.00  0.00    +0.010 C 
ATOM     26  CG2 VAL A   4       5.867  -2.802  22.741  0.00  0.00    +0.009 C 
ATOM     27  CG1 VAL A   4       4.069  -4.132  23.839  0.00  0.00    +0.009 C 
ENDBRANCH  24  25
BRANCH  24  28
ATOM     28  C   VAL A   4       6.330  -5.936  21.422  0.00  0.00    +0.245 C 
ATOM     29  O   VAL A   4       5.929  -5.430  20.374  0.00  0.00    -0.299 OA
ENDBRANCH  24  28
ENDBRANCH  21  24
ENDBRANCH  18  20
ENDBRANCH  16  18
ENDBRANCH   1  14
BRANCH   1  30
ATOM     30  CB  GLN A   2       9.961   0.103  25.015  0.00  0.00    +0.041 C 
BRANCH  30  31
ATOM     31  CG  GLN A   2      10.866   1.159  24.381  0.00  0.00    +0.098 C 
BRANCH  31  32
ATOM     32  CD  GLN A   2      10.117   2.366  23.857  0.00  0.00    +0.211 C 
ATOM     33  OE1 GLN A   2       8.905   2.500  23.988  0.00  0.00    -0.276 OA
ATOM     34  NE2 GLN A   2      10.838   3.274  23.143  0.00  0.00    -0.329 N 
ATOM     35 HE21 GLN A   2      11.845   3.279  23.094  0.00  0.00    +0.145 HD
ATOM     36 HE22 GLN A   2      10.341   4.094  22.816  0.00  0.00    +0.145 HD
ENDBRANCH  31  32
ENDBRANCH  30  31
ENDBRANCH   1  30
TORSDOF 14
ENDMDL
MODEL 6
REMARK VINA RESULT:      -6.3      2.338      5.456
REMARK  Name = LQAV-mmff94.pdb
REMARK  19 active torsions:
REMARK  status: ('A' for Active; 'I' for Inactive)
REMARK    1  A    between atoms: _1  and  _2
REMARK    2  A    between atoms: _2  and  _3
REMARK    3  A    between atoms: _2  and  _5
REMARK    4  A    between atoms: _5  and  _6
REMARK    5  A    between atoms: _6  and  _7
REMARK    6  A    between atoms: _6  and  _8
REMARK    7  A    between atoms: _20  and  _21
REMARK    8  A    between atoms: _21  and  _22
REMARK    9  A    between atoms: _21  and  _24
REMARK   10  A    between atoms: _24  and  _25
REMARK   11  A    between atoms: _25  and  _26
REMARK   12  A    between atoms: _37  and  _38
REMARK   13  A    between atoms: _38  and  _39
REMARK   14  A    between atoms: _38  and  _41
REMARK   15  A    between atoms: _47  and  _48
REMARK   16  A    between atoms: _48  and  _49
REMARK   17  A    between atoms: _48  and  _51
REMARK   18  A    between atoms: _51  and  _52
REMARK   19  A    between atoms: _51  and  _53
REMARK                            x       y       z     vdW  Elec       q    Type
REMARK                         _______ _______ _______ _____ _____    ______ ____
ROOT
ATOM      1  CA  GLN A   2       6.619  -1.424  20.566  0.00  0.00    +0.159 C 
ENDROOT
BRANCH   1   3
ATOM      2  C   LEU A   1       5.620  -3.279  21.882  0.00  0.00    +0.230 C 
ATOM      3  N   GLN A   2       5.939  -1.950  21.747  0.00  0.00    -0.303 N 
ATOM      4  H   GLN A   2       5.670  -1.278  22.460  0.00  0.00    +0.149 HD
ATOM      5  O   LEU A   1       5.889  -4.116  21.022  0.00  0.00    -0.274 OA
BRANCH   2   6
ATOM      6  CA  LEU A   1       4.881  -3.634  23.195  0.00  0.00    +0.138 C 
BRANCH   6   7
ATOM      7  N   LEU A   1       4.134  -4.894  23.007  0.00  0.00    -0.320 NA
ATOM      8  H1  LEU A   1       4.579  -5.612  23.585  0.00  0.00    +0.119 HD
ATOM      9  H2  LEU A   1       3.218  -4.776  23.447  0.00  0.00    +0.119 HD
ENDBRANCH   6   7
BRANCH   6  10
ATOM     10  CB  LEU A   1       5.892  -3.749  24.346  0.00  0.00    +0.031 C 
BRANCH  10  11
ATOM     11  CG  LEU A   1       6.490  -5.155  24.562  0.00  0.00    -0.015 C 
ATOM     12  CD2 LEU A   1       7.848  -5.252  23.861  0.00  0.00    +0.007 C 
ATOM     13  CD1 LEU A   1       6.648  -5.499  26.044  0.00  0.00    +0.007 C 
ENDBRANCH  10  11
ENDBRANCH   6  10
ENDBRANCH   2   6
ENDBRANCH   1   3
BRANCH   1  14
ATOM     14  C   GLN A   2       7.313  -0.122  21.007  0.00  0.00    +0.234 C 
ATOM     15  O   GLN A   2       8.496   0.105  20.752  0.00  0.00    -0.274 OA
ATOM     16  N   ALA A   3       6.534   0.724  21.752  0.00  0.00    -0.303 N 
ATOM     17  H   ALA A   3       5.550   0.523  21.916  0.00  0.00    +0.149 HD
BRANCH  16  18
ATOM     18  CA  ALA A   3       7.059   1.925  22.390  0.00  0.00    +0.156 C 
ATOM     19  CB  ALA A   3       5.985   2.987  22.568  0.00  0.00    +0.038 C 
BRANCH  18  20
ATOM     20  C   ALA A   3       7.622   1.496  23.755  0.00  0.00    +0.234 C 
ATOM     21  N   VAL A   4       8.758   0.728  23.698  0.00  0.00    -0.304 N 
ATOM     22  H   VAL A   4       9.214   0.554  22.806  0.00  0.00    +0.149 HD
ATOM     23  O   ALA A   3       7.090   1.831  24.813  0.00  0.00    -0.274 OA
BRANCH  21  24
ATOM     24  CA  VAL A   4       9.454   0.252  24.891  0.00  0.00    +0.138 C 
BRANCH  24  25
ATOM     25  CB  VAL A   4       9.411  -1.286  25.027  0.00  0.00    +0.010 C 
ATOM     26  CG2 VAL A   4       9.045  -1.974  23.707  0.00  0.00    +0.009 C 
ATOM     27  CG1 VAL A   4       8.413  -1.730  26.104  0.00  0.00    +0.009 C 
ENDBRANCH  24  25
BRANCH  24  28
ATOM     28  C   VAL A   4      10.890   0.749  24.743  0.00  0.00    +0.245 C 
ATOM     29  O   VAL A   4      11.207   1.714  24.049  0.00  0.00    -0.299 OA
ENDBRANCH  24  28
ENDBRANCH  21  24
ENDBRANCH  18  20
ENDBRANCH  16  18
ENDBRANCH   1  14
BRANCH   1  30
ATOM     30  CB  GLN A   2       5.607  -1.156  19.440  0.00  0.00    +0.041 C 
BRANCH  30  31
ATOM     31  CG  GLN A   2       6.226  -0.534  18.189  0.00  0.00    +0.098 C 
BRANCH  31  32
ATOM     32  CD  GLN A   2       5.790   0.894  17.940  0.00  0.00    +0.211 C 
ATOM     33  OE1 GLN A   2       6.344   1.622  17.122  0.00  0.00    -0.276 OA
ATOM     34  NE2 GLN A   2       4.800   1.383  18.737  0.00  0.00    -0.329 N 
ATOM     35 HE21 GLN A   2       4.235   0.810  19.346  0.00  0.00    +0.145 HD
ATOM     36 HE22 GLN A   2       4.492   2.329  18.552  0.00  0.00    +0.145 HD
ENDBRANCH  31  32
ENDBRANCH  30  31
ENDBRANCH   1  30
TORSDOF 14
ENDMDL
MODEL 7
REMARK VINA RESULT:      -6.2      1.376      2.024
REMARK  Name = LQAV-mmff94.pdb
REMARK  19 active torsions:
REMARK  status: ('A' for Active; 'I' for Inactive)
REMARK    1  A    between atoms: _1  and  _2
REMARK    2  A    between atoms: _2  and  _3
REMARK    3  A    between atoms: _2  and  _5
REMARK    4  A    between atoms: _5  and  _6
REMARK    5  A    between atoms: _6  and  _7
REMARK    6  A    between atoms: _6  and  _8
REMARK    7  A    between atoms: _20  and  _21
REMARK    8  A    between atoms: _21  and  _22
REMARK    9  A    between atoms: _21  and  _24
REMARK   10  A    between atoms: _24  and  _25
REMARK   11  A    between atoms: _25  and  _26
REMARK   12  A    between atoms: _37  and  _38
REMARK   13  A    between atoms: _38  and  _39
REMARK   14  A    between atoms: _38  and  _41
REMARK   15  A    between atoms: _47  and  _48
REMARK   16  A    between atoms: _48  and  _49
REMARK   17  A    between atoms: _48  and  _51
REMARK   18  A    between atoms: _51  and  _52
REMARK   19  A    between atoms: _51  and  _53
REMARK                            x       y       z     vdW  Elec       q    Type
REMARK                         _______ _______ _______ _____ _____    ______ ____
ROOT
ATOM      1  CA  GLN A   2       7.515   0.358  21.147  0.00  0.00    +0.159 C 
ENDROOT
BRANCH   1   3
ATOM      2  C   LEU A   1       6.715   2.394  22.326  0.00  0.00    +0.230 C 
ATOM      3  N   GLN A   2       7.444   1.807  21.322  0.00  0.00    -0.303 N 
ATOM      4  H   GLN A   2       7.932   2.377  20.636  0.00  0.00    +0.149 HD
ATOM      5  O   LEU A   1       6.077   1.741  23.150  0.00  0.00    -0.274 OA
BRANCH   2   6
ATOM      6  CA  LEU A   1       6.749   3.941  22.328  0.00  0.00    +0.138 C 
BRANCH   6   7
ATOM      7  N   LEU A   1       5.366   4.458  22.283  0.00  0.00    -0.320 NA
ATOM      8  H1  LEU A   1       5.245   4.956  21.398  0.00  0.00    +0.119 HD
ATOM      9  H2  LEU A   1       4.742   3.653  22.185  0.00  0.00    +0.119 HD
ENDBRANCH   6   7
BRANCH   6  10
ATOM     10  CB  LEU A   1       7.493   4.444  23.575  0.00  0.00    +0.031 C 
BRANCH  10  11
ATOM     11  CG  LEU A   1       9.018   4.205  23.576  0.00  0.00    -0.015 C 
ATOM     12  CD2 LEU A   1       9.731   5.421  24.174  0.00  0.00    +0.007 C 
ATOM     13  CD1 LEU A   1       9.409   2.945  24.348  0.00  0.00    +0.007 C 
ENDBRANCH  10  11
ENDBRANCH   6  10
ENDBRANCH   2   6
ENDBRANCH   1   3
BRANCH   1  14
ATOM     14  C   GLN A   2       8.727  -0.121  21.966  0.00  0.00    +0.234 C 
ATOM     15  O   GLN A   2       9.859  -0.179  21.485  0.00  0.00    -0.274 OA
ATOM     16  N   ALA A   3       8.436  -0.535  23.241  0.00  0.00    -0.303 N 
ATOM     17  H   ALA A   3       7.497  -0.442  23.620  0.00  0.00    +0.149 HD
BRANCH  16  18
ATOM     18  CA  ALA A   3       9.420  -1.167  24.110  0.00  0.00    +0.156 C 
ATOM     19  CB  ALA A   3       9.245  -0.749  25.562  0.00  0.00    +0.038 C 
BRANCH  18  20
ATOM     20  C   ALA A   3       9.238  -2.686  23.962  0.00  0.00    +0.234 C 
ATOM     21  N   VAL A   4       7.964  -3.090  23.647  0.00  0.00    -0.304 N 
ATOM     22  H   VAL A   4       7.244  -2.400  23.445  0.00  0.00    +0.149 HD
ATOM     23  O   ALA A   3      10.175  -3.472  24.107  0.00  0.00    -0.274 OA
BRANCH  21  24
ATOM     24  CA  VAL A   4       7.604  -4.490  23.436  0.00  0.00    +0.138 C 
BRANCH  24  25
ATOM     25  CB  VAL A   4       6.560  -4.993  24.458  0.00  0.00    +0.010 C 
ATOM     26  CG2 VAL A   4       5.401  -4.006  24.634  0.00  0.00    +0.009 C 
ATOM     27  CG1 VAL A   4       7.194  -5.256  25.830  0.00  0.00    +0.009 C 
ENDBRANCH  24  25
BRANCH  24  28
ATOM     28  C   VAL A   4       7.054  -4.553  22.014  0.00  0.00    +0.245 C 
ATOM     29  O   VAL A   4       6.581  -5.572  21.512  0.00  0.00    -0.299 OA
ENDBRANCH  24  28
ENDBRANCH  21  24
ENDBRANCH  18  20
ENDBRANCH  16  18
ENDBRANCH   1  14
BRANCH   1  30
ATOM     30  CB  GLN A   2       7.677   0.005  19.660  0.00  0.00    +0.041 C 
BRANCH  30  31
ATOM     31  CG  GLN A   2       6.354  -0.234  18.935  0.00  0.00    +0.098 C 
BRANCH  31  32
ATOM     32  CD  GLN A   2       5.830   0.986  18.206  0.00  0.00    +0.211 C 
ATOM     33  OE1 GLN A   2       6.325   1.394  17.161  0.00  0.00    -0.276 OA
ATOM     34  NE2 GLN A   2       4.830   1.682  18.812  0.00  0.00    -0.329 N 
ATOM     35 HE21 GLN A   2       4.311   1.343  19.608  0.00  0.00    +0.145 HD
ATOM     36 HE22 GLN A   2       4.463   2.483  18.312  0.00  0.00    +0.145 HD
ENDBRANCH  31  32
ENDBRANCH  30  31
ENDBRANCH   1  30
TORSDOF 14
ENDMDL
MODEL 8
REMARK VINA RESULT:      -6.2      2.416      6.923
REMARK  Name = LQAV-mmff94.pdb
REMARK  19 active torsions:
REMARK  status: ('A' for Active; 'I' for Inactive)
REMARK    1  A    between atoms: _1  and  _2
REMARK    2  A    between atoms: _2  and  _3
REMARK    3  A    between atoms: _2  and  _5
REMARK    4  A    between atoms: _5  and  _6
REMARK    5  A    between atoms: _6  and  _7
REMARK    6  A    between atoms: _6  and  _8
REMARK    7  A    between atoms: _20  and  _21
REMARK    8  A    between atoms: _21  and  _22
REMARK    9  A    between atoms: _21  and  _24
REMARK   10  A    between atoms: _24  and  _25
REMARK   11  A    between atoms: _25  and  _26
REMARK   12  A    between atoms: _37  and  _38
REMARK   13  A    between atoms: _38  and  _39
REMARK   14  A    between atoms: _38  and  _41
REMARK   15  A    between atoms: _47  and  _48
REMARK   16  A    between atoms: _48  and  _49
REMARK   17  A    between atoms: _48  and  _51
REMARK   18  A    between atoms: _51  and  _52
REMARK   19  A    between atoms: _51  and  _53
REMARK                            x       y       z     vdW  Elec       q    Type
REMARK                         _______ _______ _______ _____ _____    ______ ____
ROOT
ATOM      1  CA  GLN A   2       7.657  -3.184  22.425  0.00  0.00    +0.159 C 
ENDROOT
BRANCH   1   3
ATOM      2  C   LEU A   1       8.447  -4.311  24.493  0.00  0.00    +0.230 C 
ATOM      3  N   GLN A   2       7.989  -3.189  23.847  0.00  0.00    -0.303 N 
ATOM      4  H   GLN A   2       7.828  -2.327  24.360  0.00  0.00    +0.149 HD
ATOM      5  O   LEU A   1       8.614  -5.385  23.918  0.00  0.00    -0.274 OA
BRANCH   2   6
ATOM      6  CA  LEU A   1       8.721  -4.119  26.004  0.00  0.00    +0.138 C 
BRANCH   6   7
ATOM      7  N   LEU A   1       8.593  -2.687  26.343  0.00  0.00    -0.320 NA
ATOM      8  H1  LEU A   1       7.639  -2.395  26.121  0.00  0.00    +0.119 HD
ATOM      9  H2  LEU A   1       8.630  -2.610  27.363  0.00  0.00    +0.119 HD
ENDBRANCH   6   7
BRANCH   6  10
ATOM     10  CB  LEU A   1       7.742  -4.976  26.823  0.00  0.00    +0.031 C 
BRANCH  10  11
ATOM     11  CG  LEU A   1       6.250  -4.783  26.482  0.00  0.00    -0.015 C 
ATOM     12  CD2 LEU A   1       5.627  -6.132  26.109  0.00  0.00    +0.007 C 
ATOM     13  CD1 LEU A   1       5.467  -4.153  27.634  0.00  0.00    +0.007 C 
ENDBRANCH  10  11
ENDBRANCH   6  10
ENDBRANCH   2   6
ENDBRANCH   1   3
BRANCH   1  14
ATOM     14  C   GLN A   2       8.419  -1.999  21.803  0.00  0.00    +0.234 C 
ATOM     15  O   GLN A   2       9.607  -1.787  22.045  0.00  0.00    -0.274 OA
ATOM     16  N   ALA A   3       7.658  -1.172  21.017  0.00  0.00    -0.303 N 
ATOM     17  H   ALA A   3       6.688  -1.394  20.809  0.00  0.00    +0.149 HD
BRANCH  16  18
ATOM     18  CA  ALA A   3       8.161   0.083  20.473  0.00  0.00    +0.156 C 
ATOM     19  CB  ALA A   3       7.342   0.552  19.280  0.00  0.00    +0.038 C 
BRANCH  18  20
ATOM     20  C   ALA A   3       8.100   1.118  21.608  0.00  0.00    +0.234 C 
ATOM     21  N   VAL A   4       9.246   1.228  22.355  0.00  0.00    -0.304 N 
ATOM     22  H   VAL A   4      10.082   0.712  22.089  0.00  0.00    +0.149 HD
ATOM     23  O   ALA A   3       7.096   1.799  21.814  0.00  0.00    -0.274 OA
BRANCH  21  24
ATOM     24  CA  VAL A   4       9.388   2.178  23.455  0.00  0.00    +0.138 C 
BRANCH  24  25
ATOM     25  CB  VAL A   4       9.388   1.488  24.838  0.00  0.00    +0.010 C 
ATOM     26  CG2 VAL A   4      10.365   0.308  24.895  0.00  0.00    +0.009 C 
ATOM     27  CG1 VAL A   4       7.989   0.987  25.218  0.00  0.00    +0.009 C 
ENDBRANCH  24  25
BRANCH  24  28
ATOM     28  C   VAL A   4      10.713   2.892  23.200  0.00  0.00    +0.245 C 
ATOM     29  O   VAL A   4      10.913   4.074  23.480  0.00  0.00    -0.299 OA
ENDBRANCH  24  28
ENDBRANCH  21  24
ENDBRANCH  18  20
ENDBRANCH  16  18
ENDBRANCH   1  14
BRANCH   1  30
ATOM     30  CB  GLN A   2       6.140  -3.030  22.229  0.00  0.00    +0.041 C 
BRANCH  30  31
ATOM     31  CG  GLN A   2       5.360  -4.332  22.402  0.00  0.00    +0.098 C 
BRANCH  31  32
ATOM     32  CD  GLN A   2       5.920  -5.488  21.599  0.00  0.00    +0.211 C 
ATOM     33  OE1 GLN A   2       5.961  -5.483  20.374  0.00  0.00    -0.276 OA
ATOM     34  NE2 GLN A   2       6.300  -6.594  22.297  0.00  0.00    -0.329 N 
ATOM     35 HE21 GLN A   2       6.393  -6.620  23.301  0.00  0.00    +0.145 HD
ATOM     36 HE22 GLN A   2       6.697  -7.356  21.761  0.00  0.00    +0.145 HD
ENDBRANCH  31  32
ENDBRANCH  30  31
ENDBRANCH   1  30
TORSDOF 14
ENDMDL
MODEL 9
REMARK VINA RESULT:      -6.2      2.014      3.167
REMARK  Name = LQAV-mmff94.pdb
REMARK  19 active torsions:
REMARK  status: ('A' for Active; 'I' for Inactive)
REMARK    1  A    between atoms: _1  and  _2
REMARK    2  A    between atoms: _2  and  _3
REMARK    3  A    between atoms: _2  and  _5
REMARK    4  A    between atoms: _5  and  _6
REMARK    5  A    between atoms: _6  and  _7
REMARK    6  A    between atoms: _6  and  _8
REMARK    7  A    between atoms: _20  and  _21
REMARK    8  A    between atoms: _21  and  _22
REMARK    9  A    between atoms: _21  and  _24
REMARK   10  A    between atoms: _24  and  _25
REMARK   11  A    between atoms: _25  and  _26
REMARK   12  A    between atoms: _37  and  _38
REMARK   13  A    between atoms: _38  and  _39
REMARK   14  A    between atoms: _38  and  _41
REMARK   15  A    between atoms: _47  and  _48
REMARK   16  A    between atoms: _48  and  _49
REMARK   17  A    between atoms: _48  and  _51
REMARK   18  A    between atoms: _51  and  _52
REMARK   19  A    between atoms: _51  and  _53
REMARK                            x       y       z     vdW  Elec       q    Type
REMARK                         _______ _______ _______ _____ _____    ______ ____
ROOT
ATOM      1  CA  GLN A   2       8.208  -0.307  21.903  0.00  0.00    +0.159 C 
ENDROOT
BRANCH   1   3
ATOM      2  C   LEU A   1       8.378   1.611  23.474  0.00  0.00    +0.230 C 
ATOM      3  N   GLN A   2       8.776   0.971  22.326  0.00  0.00    -0.303 N 
ATOM      4  H   GLN A   2       9.460   1.397  21.707  0.00  0.00    +0.149 HD
ATOM      5  O   LEU A   1       7.522   1.150  24.227  0.00  0.00    -0.274 OA
BRANCH   2   6
ATOM      6  CA  LEU A   1       9.082   2.964  23.735  0.00  0.00    +0.138 C 
BRANCH   6   7
ATOM      7  N   LEU A   1      10.092   3.198  22.683  0.00  0.00    -0.320 NA
ATOM      8  H1  LEU A   1      10.851   3.748  23.093  0.00  0.00    +0.119 HD
ATOM      9  H2  LEU A   1      10.538   2.299  22.482  0.00  0.00    +0.119 HD
ENDBRANCH   6   7
BRANCH   6  10
ATOM     10  CB  LEU A   1       8.040   4.093  23.770  0.00  0.00    +0.031 C 
BRANCH  10  11
ATOM     11  CG  LEU A   1       7.326   4.376  22.431  0.00  0.00    -0.015 C 
ATOM     12  CD2 LEU A   1       5.861   3.938  22.525  0.00  0.00    +0.007 C 
ATOM     13  CD1 LEU A   1       7.400   5.850  22.032  0.00  0.00    +0.007 C 
ENDBRANCH  10  11
ENDBRANCH   6  10
ENDBRANCH   2   6
ENDBRANCH   1   3
BRANCH   1  14
ATOM     14  C   GLN A   2       9.002  -1.402  22.640  0.00  0.00    +0.234 C 
ATOM     15  O   GLN A   2      10.063  -1.845  22.202  0.00  0.00    -0.274 OA
ATOM     16  N   ALA A   3       8.403  -1.883  23.776  0.00  0.00    -0.303 N 
ATOM     17  H   ALA A   3       7.543  -1.471  24.130  0.00  0.00    +0.149 HD
BRANCH  16  18
ATOM     18  CA  ALA A   3       8.922  -3.024  24.519  0.00  0.00    +0.156 C 
ATOM     19  CB  ALA A   3       8.753  -2.848  26.020  0.00  0.00    +0.038 C 
BRANCH  18  20
ATOM     20  C   ALA A   3       8.151  -4.262  24.032  0.00  0.00    +0.234 C 
ATOM     21  N   VAL A   4       6.814  -4.057  23.796  0.00  0.00    -0.304 N 
ATOM     22  H   VAL A   4       6.421  -3.121  23.862  0.00  0.00    +0.149 HD
ATOM     23  O   ALA A   3       8.704  -5.348  23.861  0.00  0.00    -0.274 OA
BRANCH  21  24
ATOM     24  CA  VAL A   4       5.926  -5.105  23.301  0.00  0.00    +0.138 C 
BRANCH  24  25
ATOM     25  CB  VAL A   4       4.559  -5.112  24.022  0.00  0.00    +0.010 C 
ATOM     26  CG2 VAL A   4       3.446  -5.699  23.145  0.00  0.00    +0.009 C 
ATOM     27  CG1 VAL A   4       4.145  -3.702  24.461  0.00  0.00    +0.009 C 
ENDBRANCH  24  25
BRANCH  24  28
ATOM     28  C   VAL A   4       5.758  -4.819  21.812  0.00  0.00    +0.245 C 
ATOM     29  O   VAL A   4       5.727  -3.684  21.336  0.00  0.00    -0.299 OA
ENDBRANCH  24  28
ENDBRANCH  21  24
ENDBRANCH  18  20
ENDBRANCH  16  18
ENDBRANCH   1  14
BRANCH   1  30
ATOM     30  CB  GLN A   2       8.327  -0.468  20.379  0.00  0.00    +0.041 C 
BRANCH  30  31
ATOM     31  CG  GLN A   2       7.327   0.375  19.590  0.00  0.00    +0.098 C 
BRANCH  31  32
ATOM     32  CD  GLN A   2       6.273  -0.442  18.873  0.00  0.00    +0.211 C 
ATOM     33  OE1 GLN A   2       6.064  -0.341  17.669  0.00  0.00    -0.276 OA
ATOM     34  NE2 GLN A   2       5.487  -1.244  19.643  0.00  0.00    -0.329 N 
ATOM     35 HE21 GLN A   2       5.677  -1.454  20.612  0.00  0.00    +0.145 HD
ATOM     36 HE22 GLN A   2       4.800  -1.809  19.160  0.00  0.00    +0.145 HD
ENDBRANCH  31  32
ENDBRANCH  30  31
ENDBRANCH   1  30
TORSDOF 14
ENDMDL
MODEL 10
REMARK VINA RESULT:      -6.2      3.109      5.010
REMARK  Name = LQAV-mmff94.pdb
REMARK  19 active torsions:
REMARK  status: ('A' for Active; 'I' for Inactive)
REMARK    1  A    between atoms: _1  and  _2
REMARK    2  A    between atoms: _2  and  _3
REMARK    3  A    between atoms: _2  and  _5
REMARK    4  A    between atoms: _5  and  _6
REMARK    5  A    between atoms: _6  and  _7
REMARK    6  A    between atoms: _6  and  _8
REMARK    7  A    between atoms: _20  and  _21
REMARK    8  A    between atoms: _21  and  _22
REMARK    9  A    between atoms: _21  and  _24
REMARK   10  A    between atoms: _24  and  _25
REMARK   11  A    between atoms: _25  and  _26
REMARK   12  A    between atoms: _37  and  _38
REMARK   13  A    between atoms: _38  and  _39
REMARK   14  A    between atoms: _38  and  _41
REMARK   15  A    between atoms: _47  and  _48
REMARK   16  A    between atoms: _48  and  _49
REMARK   17  A    between atoms: _48  and  _51
REMARK   18  A    between atoms: _51  and  _52
REMARK   19  A    between atoms: _51  and  _53
REMARK                            x       y       z     vdW  Elec       q    Type
REMARK                         _______ _______ _______ _____ _____    ______ ____
ROOT
ATOM      1  CA  GLN A   2       6.884  -0.936  21.569  0.00  0.00    +0.159 C 
ENDROOT
BRANCH   1   3
ATOM      2  C   LEU A   1       7.902  -0.438  23.781  0.00  0.00    +0.230 C 
ATOM      3  N   GLN A   2       7.894  -1.145  22.604  0.00  0.00    -0.303 N 
ATOM      4  H   GLN A   2       8.628  -1.819  22.401  0.00  0.00    +0.149 HD
ATOM      5  O   LEU A   1       7.057   0.417  24.046  0.00  0.00    -0.274 OA
BRANCH   2   6
ATOM      6  CA  LEU A   1       9.067  -0.789  24.737  0.00  0.00    +0.138 C 
BRANCH   6   7
ATOM      7  N   LEU A   1       9.615   0.455  25.314  0.00  0.00    -0.320 NA
ATOM      8  H1  LEU A   1      10.635   0.387  25.295  0.00  0.00    +0.119 HD
ATOM      9  H2  LEU A   1       9.419   1.211  24.653  0.00  0.00    +0.119 HD
ENDBRANCH   6   7
BRANCH   6  10
ATOM     10  CB  LEU A   1       8.568  -1.742  25.835  0.00  0.00    +0.031 C 
BRANCH  10  11
ATOM     11  CG  LEU A   1       8.408  -3.216  25.407  0.00  0.00    -0.015 C 
ATOM     12  CD2 LEU A   1       9.592  -3.631  24.530  0.00  0.00    +0.007 C 
ATOM     13  CD1 LEU A   1       8.298  -4.160  26.605  0.00  0.00    +0.007 C 
ENDBRANCH  10  11
ENDBRANCH   6  10
ENDBRANCH   2   6
ENDBRANCH   1   3
BRANCH   1  14
ATOM     14  C   GLN A   2       6.317  -2.325  21.225  0.00  0.00    +0.234 C 
ATOM     15  O   GLN A   2       5.500  -2.491  20.320  0.00  0.00    -0.274 OA
ATOM     16  N   ALA A   3       6.743  -3.341  22.042  0.00  0.00    -0.303 N 
ATOM     17  H   ALA A   3       7.446  -3.177  22.759  0.00  0.00    +0.149 HD
BRANCH  16  18
ATOM     18  CA  ALA A   3       6.198  -4.691  21.973  0.00  0.00    +0.156 C 
ATOM     19  CB  ALA A   3       7.245  -5.742  22.311  0.00  0.00    +0.038 C 
BRANCH  18  20
ATOM     20  C   ALA A   3       5.031  -4.753  22.972  0.00  0.00    +0.234 C 
ATOM     21  N   VAL A   4       5.325  -4.307  24.236  0.00  0.00    -0.304 N 
ATOM     22  H   VAL A   4       6.231  -3.888  24.433  0.00  0.00    +0.149 HD
ATOM     23  O   ALA A   3       3.918  -5.166  22.647  0.00  0.00    -0.274 OA
BRANCH  21  24
ATOM     24  CA  VAL A   4       4.337  -4.262  25.311  0.00  0.00    +0.138 C 
BRANCH  24  25
ATOM     25  CB  VAL A   4       4.782  -5.059  26.558  0.00  0.00    +0.010 C 
ATOM     26  CG2 VAL A   4       3.995  -6.366  26.719  0.00  0.00    +0.009 C 
ATOM     27  CG1 VAL A   4       4.629  -4.233  27.841  0.00  0.00    +0.009 C 
ENDBRANCH  24  25
BRANCH  24  28
ATOM     28  C   VAL A   4       4.169  -2.781  25.640  0.00  0.00    +0.245 C 
ATOM     29  O   VAL A   4       4.786  -1.883  25.068  0.00  0.00    -0.299 OA
ENDBRANCH  24  28
ENDBRANCH  21  24
ENDBRANCH  18  20
ENDBRANCH  16  18
ENDBRANCH   1  14
BRANCH   1  30
ATOM     30  CB  GLN A   2       7.513  -0.273  20.333  0.00  0.00    +0.041 C 
BRANCH  30  31
ATOM     31  CG  GLN A   2       6.635   0.803  19.696  0.00  0.00    +0.098 C 
BRANCH  31  32
ATOM     32  CD  GLN A   2       6.250   0.505  18.262  0.00  0.00    +0.211 C 
ATOM     33  OE1 GLN A   2       6.407   1.315  17.354  0.00  0.00    -0.276 OA
ATOM     34  NE2 GLN A   2       5.628  -0.682  18.027  0.00  0.00    -0.329 N 
ATOM     35 HE21 GLN A   2       5.569  -1.430  18.702  0.00  0.00    +0.145 HD
ATOM     36 HE22 GLN A   2       5.394  -0.891  17.064  0.00  0.00    +0.145 HD
ENDBRANCH  31  32
ENDBRANCH  30  31
ENDBRANCH   1  30
TORSDOF 14
ENDMDL
MODEL 11
REMARK VINA RESULT:      -6.2      2.754      4.326
REMARK  Name = LQAV-mmff94.pdb
REMARK  19 active torsions:
REMARK  status: ('A' for Active; 'I' for Inactive)
REMARK    1  A    between atoms: _1  and  _2
REMARK    2  A    between atoms: _2  and  _3
REMARK    3  A    between atoms: _2  and  _5
REMARK    4  A    between atoms: _5  and  _6
REMARK    5  A    between atoms: _6  and  _7
REMARK    6  A    between atoms: _6  and  _8
REMARK    7  A    between atoms: _20  and  _21
REMARK    8  A    between atoms: _21  and  _22
REMARK    9  A    between atoms: _21  and  _24
REMARK   10  A    between atoms: _24  and  _25
REMARK   11  A    between atoms: _25  and  _26
REMARK   12  A    between atoms: _37  and  _38
REMARK   13  A    between atoms: _38  and  _39
REMARK   14  A    between atoms: _38  and  _41
REMARK   15  A    between atoms: _47  and  _48
REMARK   16  A    between atoms: _48  and  _49
REMARK   17  A    between atoms: _48  and  _51
REMARK   18  A    between atoms: _51  and  _52
REMARK   19  A    between atoms: _51  and  _53
REMARK                            x       y       z     vdW  Elec       q    Type
REMARK                         _______ _______ _______ _____ _____    ______ ____
ROOT
ATOM      1  CA  GLN A   2       6.125  -1.068  20.280  0.00  0.00    +0.159 C 
ENDROOT
BRANCH   1   3
ATOM      2  C   LEU A   1       7.789  -0.128  21.868  0.00  0.00    +0.230 C 
ATOM      3  N   GLN A   2       7.494  -0.859  20.744  0.00  0.00    -0.303 N 
ATOM      4  H   GLN A   2       8.238  -1.250  20.172  0.00  0.00    +0.149 HD
ATOM      5  O   LEU A   1       6.920   0.397  22.564  0.00  0.00    -0.274 OA
BRANCH   2   6
ATOM      6  CA  LEU A   1       9.299  -0.003  22.179  0.00  0.00    +0.138 C 
BRANCH   6   7
ATOM      7  N   LEU A   1      10.045  -0.991  21.374  0.00  0.00    -0.320 NA
ATOM      8  H1  LEU A   1       9.391  -1.726  21.092  0.00  0.00    +0.119 HD
ATOM      9  H2  LEU A   1      10.288  -0.542  20.487  0.00  0.00    +0.119 HD
ENDBRANCH   6   7
BRANCH   6  10
ATOM     10  CB  LEU A   1       9.774   1.429  21.887  0.00  0.00    +0.031 C 
BRANCH  10  11
ATOM     11  CG  LEU A   1      10.310   2.209  23.106  0.00  0.00    -0.015 C 
ATOM     12  CD2 LEU A   1       9.249   3.202  23.590  0.00  0.00    +0.007 C 
ATOM     13  CD1 LEU A   1      10.716   1.286  24.255  0.00  0.00    +0.007 C 
ENDBRANCH  10  11
ENDBRANCH   6  10
ENDBRANCH   2   6
ENDBRANCH   1   3
BRANCH   1  14
ATOM     14  C   GLN A   2       5.894  -2.591  20.270  0.00  0.00    +0.234 C 
ATOM     15  O   GLN A   2       5.490  -3.183  19.270  0.00  0.00    -0.274 OA
ATOM     16  N   ALA A   3       6.112  -3.215  21.472  0.00  0.00    -0.303 N 
ATOM     17  H   ALA A   3       6.480  -2.703  22.270  0.00  0.00    +0.149 HD
BRANCH  16  18
ATOM     18  CA  ALA A   3       5.798  -4.620  21.700  0.00  0.00    +0.156 C 
ATOM     19  CB  ALA A   3       7.053  -5.462  21.868  0.00  0.00    +0.038 C 
BRANCH  18  20
ATOM     20  C   ALA A   3       4.933  -4.683  22.970  0.00  0.00    +0.234 C 
ATOM     21  N   VAL A   4       5.620  -4.526  24.147  0.00  0.00    -0.304 N 
ATOM     22  H   VAL A   4       6.611  -4.295  24.135  0.00  0.00    +0.149 HD
ATOM     23  O   ALA A   3       3.715  -4.854  22.920  0.00  0.00    -0.274 OA
BRANCH  21  24
ATOM     24  CA  VAL A   4       4.966  -4.526  25.454  0.00  0.00    +0.138 C 
BRANCH  24  25
ATOM     25  CB  VAL A   4       5.795  -5.263  26.530  0.00  0.00    +0.010 C 
ATOM     26  CG2 VAL A   4       5.708  -4.574  27.897  0.00  0.00    +0.009 C 
ATOM     27  CG1 VAL A   4       7.271  -5.373  26.129  0.00  0.00    +0.009 C 
ENDBRANCH  24  25
BRANCH  24  28
ATOM     28  C   VAL A   4       4.786  -3.054  25.813  0.00  0.00    +0.245 C 
ATOM     29  O   VAL A   4       3.826  -2.377  25.447  0.00  0.00    -0.299 OA
ENDBRANCH  24  28
ENDBRANCH  21  24
ENDBRANCH  18  20
ENDBRANCH  16  18
ENDBRANCH   1  14
BRANCH   1  30
ATOM     30  CB  GLN A   2       5.938  -0.471  18.876  0.00  0.00    +0.041 C 
BRANCH  30  31
ATOM     31  CG  GLN A   2       6.055   1.051  18.832  0.00  0.00    +0.098 C 
BRANCH  31  32
ATOM     32  CD  GLN A   2       4.982   1.768  19.624  0.00  0.00    +0.211 C 
ATOM     33  OE1 GLN A   2       3.828   1.880  19.223  0.00  0.00    -0.276 OA
ATOM     34  NE2 GLN A   2       5.371   2.375  20.779  0.00  0.00    -0.329 N 
ATOM     35 HE21 GLN A   2       6.269   2.229  21.215  0.00  0.00    +0.145 HD
ATOM     36 HE22 GLN A   2       4.647   2.831  21.320  0.00  0.00    +0.145 HD
ENDBRANCH  31  32
ENDBRANCH  30  31
ENDBRANCH   1  30
TORSDOF 14
ENDMDL
MODEL 12
REMARK VINA RESULT:      -6.2      2.096      2.939
REMARK  Name = LQAV-mmff94.pdb
REMARK  19 active torsions:
REMARK  status: ('A' for Active; 'I' for Inactive)
REMARK    1  A    between atoms: _1  and  _2
REMARK    2  A    between atoms: _2  and  _3
REMARK    3  A    between atoms: _2  and  _5
REMARK    4  A    between atoms: _5  and  _6
REMARK    5  A    between atoms: _6  and  _7
REMARK    6  A    between atoms: _6  and  _8
REMARK    7  A    between atoms: _20  and  _21
REMARK    8  A    between atoms: _21  and  _22
REMARK    9  A    between atoms: _21  and  _24
REMARK   10  A    between atoms: _24  and  _25
REMARK   11  A    between atoms: _25  and  _26
REMARK   12  A    between atoms: _37  and  _38
REMARK   13  A    between atoms: _38  and  _39
REMARK   14  A    between atoms: _38  and  _41
REMARK   15  A    between atoms: _47  and  _48
REMARK   16  A    between atoms: _48  and  _49
REMARK   17  A    between atoms: _48  and  _51
REMARK   18  A    between atoms: _51  and  _52
REMARK   19  A    between atoms: _51  and  _53
REMARK                            x       y       z     vdW  Elec       q    Type
REMARK                         _______ _______ _______ _____ _____    ______ ____
ROOT
ATOM      1  CA  GLN A   2       7.419  -0.424  21.514  0.00  0.00    +0.159 C 
ENDROOT
BRANCH   1   3
ATOM      2  C   LEU A   1       6.771   1.302  23.179  0.00  0.00    +0.230 C 
ATOM      3  N   GLN A   2       7.394   0.951  22.007  0.00  0.00    -0.303 N 
ATOM      4  H   GLN A   2       7.829   1.658  21.421  0.00  0.00    +0.149 HD
ATOM      5  O   LEU A   1       6.196   0.484  23.895  0.00  0.00    -0.274 OA
BRANCH   2   6
ATOM      6  CA  LEU A   1       6.835   2.811  23.517  0.00  0.00    +0.138 C 
BRANCH   6   7
ATOM      7  N   LEU A   1       6.799   2.984  24.983  0.00  0.00    -0.320 NA
ATOM      8  H1  LEU A   1       5.830   3.167  25.255  0.00  0.00    +0.119 HD
ATOM      9  H2  LEU A   1       6.990   2.070  25.403  0.00  0.00    +0.119 HD
ENDBRANCH   6   7
BRANCH   6  10
ATOM     10  CB  LEU A   1       8.108   3.425  22.913  0.00  0.00    +0.031 C 
BRANCH  10  11
ATOM     11  CG  LEU A   1       9.316   3.515  23.869  0.00  0.00    -0.015 C 
ATOM     12  CD2 LEU A   1      10.381   2.497  23.452  0.00  0.00    +0.007 C 
ATOM     13  CD1 LEU A   1       9.926   4.917  23.904  0.00  0.00    +0.007 C 
ENDBRANCH  10  11
ENDBRANCH   6  10
ENDBRANCH   2   6
ENDBRANCH   1   3
BRANCH   1  14
ATOM     14  C   GLN A   2       8.455  -1.176  22.371  0.00  0.00    +0.234 C 
ATOM     15  O   GLN A   2       9.665  -1.058  22.185  0.00  0.00    -0.274 OA
ATOM     16  N   ALA A   3       7.922  -2.027  23.305  0.00  0.00    -0.303 N 
ATOM     17  H   ALA A   3       6.918  -2.075  23.457  0.00  0.00    +0.149 HD
BRANCH  16  18
ATOM     18  CA  ALA A   3       8.737  -2.938  24.099  0.00  0.00    +0.156 C 
ATOM     19  CB  ALA A   3       8.653  -2.624  25.585  0.00  0.00    +0.038 C 
BRANCH  18  20
ATOM     20  C   ALA A   3       8.221  -4.358  23.819  0.00  0.00    +0.234 C 
ATOM     21  N   VAL A   4       7.025  -4.420  23.148  0.00  0.00    -0.304 N 
ATOM     22  H   VAL A   4       6.590  -3.569  22.799  0.00  0.00    +0.149 HD
ATOM     23  O   ALA A   3       8.847  -5.359  24.167  0.00  0.00    -0.274 OA
BRANCH  21  24
ATOM     24  CA  VAL A   4       6.392  -5.680  22.767  0.00  0.00    +0.138 C 
BRANCH  24  25
ATOM     25  CB  VAL A   4       4.887  -5.716  23.114  0.00  0.00    +0.010 C 
ATOM     26  CG2 VAL A   4       4.338  -4.324  23.448  0.00  0.00    +0.009 C 
ATOM     27  CG1 VAL A   4       4.602  -6.652  24.295  0.00  0.00    +0.009 C 
ENDBRANCH  24  25
BRANCH  24  28
ATOM     28  C   VAL A   4       6.610  -5.799  21.261  0.00  0.00    +0.245 C 
ATOM     29  O   VAL A   4       5.940  -5.192  20.426  0.00  0.00    -0.299 OA
ENDBRANCH  24  28
ENDBRANCH  21  24
ENDBRANCH  18  20
ENDBRANCH  16  18
ENDBRANCH   1  14
BRANCH   1  30
ATOM     30  CB  GLN A   2       7.807  -0.453  20.027  0.00  0.00    +0.041 C 
BRANCH  30  31
ATOM     31  CG  GLN A   2       7.141   0.642  19.195  0.00  0.00    +0.098 C 
BRANCH  31  32
ATOM     32  CD  GLN A   2       5.868   0.196  18.508  0.00  0.00    +0.211 C 
ATOM     33  OE1 GLN A   2       5.868  -0.564  17.545  0.00  0.00    -0.276 OA
ATOM     34  NE2 GLN A   2       4.705   0.750  18.948  0.00  0.00    -0.329 N 
ATOM     35 HE21 GLN A   2       4.626   1.290  19.796  0.00  0.00    +0.145 HD
ATOM     36 HE22 GLN A   2       3.852   0.431  18.505  0.00  0.00    +0.145 HD
ENDBRANCH  31  32
ENDBRANCH  30  31
ENDBRANCH   1  30
TORSDOF 14
ENDMDL
MODEL 13
REMARK VINA RESULT:      -6.2      2.511      4.149
REMARK  Name = LQAV-mmff94.pdb
REMARK  19 active torsions:
REMARK  status: ('A' for Active; 'I' for Inactive)
REMARK    1  A    between atoms: _1  and  _2
REMARK    2  A    between atoms: _2  and  _3
REMARK    3  A    between atoms: _2  and  _5
REMARK    4  A    between atoms: _5  and  _6
REMARK    5  A    between atoms: _6  and  _7
REMARK    6  A    between atoms: _6  and  _8
REMARK    7  A    between atoms: _20  and  _21
REMARK    8  A    between atoms: _21  and  _22
REMARK    9  A    between atoms: _21  and  _24
REMARK   10  A    between atoms: _24  and  _25
REMARK   11  A    between atoms: _25  and  _26
REMARK   12  A    between atoms: _37  and  _38
REMARK   13  A    between atoms: _38  and  _39
REMARK   14  A    between atoms: _38  and  _41
REMARK   15  A    between atoms: _47  and  _48
REMARK   16  A    between atoms: _48  and  _49
REMARK   17  A    between atoms: _48  and  _51
REMARK   18  A    between atoms: _51  and  _52
REMARK   19  A    between atoms: _51  and  _53
REMARK                            x       y       z     vdW  Elec       q    Type
REMARK                         _______ _______ _______ _____ _____    ______ ____
ROOT
ATOM      1  CA  GLN A   2       6.891  -0.906  21.301  0.00  0.00    +0.159 C 
ENDROOT
BRANCH   1   3
ATOM      2  C   LEU A   1       7.654  -0.384  23.607  0.00  0.00    +0.230 C 
ATOM      3  N   GLN A   2       7.871  -0.967  22.383  0.00  0.00    -0.303 N 
ATOM      4  H   GLN A   2       8.752  -1.431  22.180  0.00  0.00    +0.149 HD
ATOM      5  O   LEU A   1       6.619   0.223  23.878  0.00  0.00    -0.274 OA
BRANCH   2   6
ATOM      6  CA  LEU A   1       8.821  -0.540  24.611  0.00  0.00    +0.138 C 
BRANCH   6   7
ATOM      7  N   LEU A   1       8.850  -1.929  25.112  0.00  0.00    -0.320 NA
ATOM      8  H1  LEU A   1       9.826  -2.234  25.137  0.00  0.00    +0.119 HD
ATOM      9  H2  LEU A   1       8.589  -1.903  26.101  0.00  0.00    +0.119 HD
ENDBRANCH   6   7
BRANCH   6  10
ATOM     10  CB  LEU A   1      10.147  -0.163  23.930  0.00  0.00    +0.031 C 
BRANCH  10  11
ATOM     11  CG  LEU A   1      10.373   1.348  23.714  0.00  0.00    -0.015 C 
ATOM     12  CD2 LEU A   1      10.169   1.694  22.237  0.00  0.00    +0.007 C 
ATOM     13  CD1 LEU A   1       9.446   2.204  24.578  0.00  0.00    +0.007 C 
ENDBRANCH  10  11
ENDBRANCH   6  10
ENDBRANCH   2   6
ENDBRANCH   1   3
BRANCH   1  14
ATOM     14  C   GLN A   2       6.309  -2.325  21.159  0.00  0.00    +0.234 C 
ATOM     15  O   GLN A   2       5.504  -2.615  20.274  0.00  0.00    -0.274 OA
ATOM     16  N   ALA A   3       6.706  -3.211  22.127  0.00  0.00    -0.303 N 
ATOM     17  H   ALA A   3       7.399  -2.949  22.825  0.00  0.00    +0.149 HD
BRANCH  16  18
ATOM     18  CA  ALA A   3       6.142  -4.548  22.252  0.00  0.00    +0.156 C 
ATOM     19  CB  ALA A   3       7.187  -5.628  22.019  0.00  0.00    +0.038 C 
BRANCH  18  20
ATOM     20  C   ALA A   3       5.562  -4.658  23.672  0.00  0.00    +0.234 C 
ATOM     21  N   VAL A   4       6.302  -4.042  24.650  0.00  0.00    -0.304 N 
ATOM     22  H   VAL A   4       7.117  -3.486  24.401  0.00  0.00    +0.149 HD
ATOM     23  O   ALA A   3       4.507  -5.250  23.901  0.00  0.00    -0.274 OA
BRANCH  21  24
ATOM     24  CA  VAL A   4       5.896  -4.013  26.053  0.00  0.00    +0.138 C 
BRANCH  24  25
ATOM     25  CB  VAL A   4       6.980  -4.584  26.995  0.00  0.00    +0.010 C 
ATOM     26  CG2 VAL A   4       8.107  -5.280  26.223  0.00  0.00    +0.009 C 
ATOM     27  CG1 VAL A   4       6.387  -5.579  28.000  0.00  0.00    +0.009 C 
ENDBRANCH  24  25
BRANCH  24  28
ATOM     28  C   VAL A   4       5.621  -2.544  26.361  0.00  0.00    +0.245 C 
ATOM     29  O   VAL A   4       6.429  -1.804  26.922  0.00  0.00    -0.299 OA
ENDBRANCH  24  28
ENDBRANCH  21  24
ENDBRANCH  18  20
ENDBRANCH  16  18
ENDBRANCH   1  14
BRANCH   1  30
ATOM     30  CB  GLN A   2       7.563  -0.452  19.995  0.00  0.00    +0.041 C 
BRANCH  30  31
ATOM     31  CG  GLN A   2       6.900   0.765  19.351  0.00  0.00    +0.098 C 
BRANCH  31  32
ATOM     32  CD  GLN A   2       5.669   0.427  18.536  0.00  0.00    +0.211 C 
ATOM     33  OE1 GLN A   2       5.720  -0.239  17.507  0.00  0.00    -0.276 OA
ATOM     34  NE2 GLN A   2       4.492   0.976  18.944  0.00  0.00    -0.329 N 
ATOM     35 HE21 GLN A   2       4.364   1.436  19.833  0.00  0.00    +0.145 HD
ATOM     36 HE22 GLN A   2       3.666   0.728  18.413  0.00  0.00    +0.145 HD
ENDBRANCH  31  32
ENDBRANCH  30  31
ENDBRANCH   1  30
TORSDOF 14
ENDMDL
MODEL 14
REMARK VINA RESULT:      -6.2      2.294      5.247
REMARK  Name = LQAV-mmff94.pdb
REMARK  19 active torsions:
REMARK  status: ('A' for Active; 'I' for Inactive)
REMARK    1  A    between atoms: _1  and  _2
REMARK    2  A    between atoms: _2  and  _3
REMARK    3  A    between atoms: _2  and  _5
REMARK    4  A    between atoms: _5  and  _6
REMARK    5  A    between atoms: _6  and  _7
REMARK    6  A    between atoms: _6  and  _8
REMARK    7  A    between atoms: _20  and  _21
REMARK    8  A    between atoms: _21  and  _22
REMARK    9  A    between atoms: _21  and  _24
REMARK   10  A    between atoms: _24  and  _25
REMARK   11  A    between atoms: _25  and  _26
REMARK   12  A    between atoms: _37  and  _38
REMARK   13  A    between atoms: _38  and  _39
REMARK   14  A    between atoms: _38  and  _41
REMARK   15  A    between atoms: _47  and  _48
REMARK   16  A    between atoms: _48  and  _49
REMARK   17  A    between atoms: _48  and  _51
REMARK   18  A    between atoms: _51  and  _52
REMARK   19  A    between atoms: _51  and  _53
REMARK                            x       y       z     vdW  Elec       q    Type
REMARK                         _______ _______ _______ _____ _____    ______ ____
ROOT
ATOM      1  CA  GLN A   2       8.781   0.295  21.197  0.00  0.00    +0.159 C 
ENDROOT
BRANCH   1   3
ATOM      2  C   LEU A   1       9.512  -1.724  22.446  0.00  0.00    +0.230 C 
ATOM      3  N   GLN A   2       8.524  -0.847  22.071  0.00  0.00    -0.303 N 
ATOM      4  H   GLN A   2       7.563  -0.995  22.364  0.00  0.00    +0.149 HD
ATOM      5  O   LEU A   1      10.679  -1.605  22.078  0.00  0.00    -0.274 OA
BRANCH   2   6
ATOM      6  CA  LEU A   1       9.035  -2.881  23.356  0.00  0.00    +0.138 C 
BRANCH   6   7
ATOM      7  N   LEU A   1       8.927  -2.395  24.746  0.00  0.00    -0.320 NA
ATOM      8  H1  LEU A   1       7.934  -2.351  24.988  0.00  0.00    +0.119 HD
ATOM      9  H2  LEU A   1       9.283  -3.134  25.357  0.00  0.00    +0.119 HD
ENDBRANCH   6   7
BRANCH   6  10
ATOM     10  CB  LEU A   1       7.689  -3.421  22.847  0.00  0.00    +0.031 C 
BRANCH  10  11
ATOM     11  CG  LEU A   1       7.423  -4.913  23.138  0.00  0.00    -0.015 C 
ATOM     12  CD2 LEU A   1       6.279  -5.046  24.148  0.00  0.00    +0.007 C 
ATOM     13  CD1 LEU A   1       7.088  -5.702  21.872  0.00  0.00    +0.007 C 
ENDBRANCH  10  11
ENDBRANCH   6  10
ENDBRANCH   2   6
ENDBRANCH   1   3
BRANCH   1  14
ATOM     14  C   GLN A   2       9.272   1.438  22.105  0.00  0.00    +0.234 C 
ATOM     15  O   GLN A   2      10.407   1.903  22.014  0.00  0.00    -0.274 OA
ATOM     16  N   ALA A   3       8.372   1.846  23.056  0.00  0.00    -0.303 N 
ATOM     17  H   ALA A   3       7.429   1.465  23.083  0.00  0.00    +0.149 HD
BRANCH  16  18
ATOM     18  CA  ALA A   3       8.709   2.801  24.104  0.00  0.00    +0.156 C 
ATOM     19  CB  ALA A   3       8.351   4.225  23.709  0.00  0.00    +0.038 C 
BRANCH  18  20
ATOM     20  C   ALA A   3       7.931   2.379  25.361  0.00  0.00    +0.234 C 
ATOM     21  N   VAL A   4       7.630   1.043  25.436  0.00  0.00    -0.304 N 
ATOM     22  H   VAL A   4       7.992   0.396  24.738  0.00  0.00    +0.149 HD
ATOM     23  O   ALA A   3       7.614   3.189  26.233  0.00  0.00    -0.274 OA
BRANCH  21  24
ATOM     24  CA  VAL A   4       6.922   0.450  26.568  0.00  0.00    +0.138 C 
BRANCH  24  25
ATOM     25  CB  VAL A   4       5.952  -0.673  26.139  0.00  0.00    +0.010 C 
ATOM     26  CG2 VAL A   4       5.839  -0.787  24.614  0.00  0.00    +0.009 C 
ATOM     27  CG1 VAL A   4       4.549  -0.459  26.720  0.00  0.00    +0.009 C 
ENDBRANCH  24  25
BRANCH  24  28
ATOM     28  C   VAL A   4       8.015  -0.091  27.486  0.00  0.00    +0.245 C 
ATOM     29  O   VAL A   4       8.916  -0.837  27.104  0.00  0.00    -0.299 OA
ENDBRANCH  24  28
ENDBRANCH  21  24
ENDBRANCH  18  20
ENDBRANCH  16  18
ENDBRANCH   1  14
BRANCH   1  30
ATOM     30  CB  GLN A   2       7.500   0.696  20.448  0.00  0.00    +0.041 C 
BRANCH  30  31
ATOM     31  CG  GLN A   2       7.487   0.277  18.979  0.00  0.00    +0.098 C 
BRANCH  31  32
ATOM     32  CD  GLN A   2       6.229  -0.459  18.567  0.00  0.00    +0.211 C 
ATOM     33  OE1 GLN A   2       5.848  -0.516  17.403  0.00  0.00    -0.276 OA
ATOM     34  NE2 GLN A   2       5.472  -0.990  19.566  0.00  0.00    -0.329 N 
ATOM     35 HE21 GLN A   2       5.782  -1.074  20.522  0.00  0.00    +0.145 HD
ATOM     36 HE22 GLN A   2       4.646  -1.504  19.287  0.00  0.00    +0.145 HD
ENDBRANCH  31  32
ENDBRANCH  30  31
ENDBRANCH   1  30
TORSDOF 14
ENDMDL
MODEL 15
REMARK VINA RESULT:      -6.1      1.927      2.770
REMARK  Name = LQAV-mmff94.pdb
REMARK  19 active torsions:
REMARK  status: ('A' for Active; 'I' for Inactive)
REMARK    1  A    between atoms: _1  and  _2
REMARK    2  A    between atoms: _2  and  _3
REMARK    3  A    between atoms: _2  and  _5
REMARK    4  A    between atoms: _5  and  _6
REMARK    5  A    between atoms: _6  and  _7
REMARK    6  A    between atoms: _6  and  _8
REMARK    7  A    between atoms: _20  and  _21
REMARK    8  A    between atoms: _21  and  _22
REMARK    9  A    between atoms: _21  and  _24
REMARK   10  A    between atoms: _24  and  _25
REMARK   11  A    between atoms: _25  and  _26
REMARK   12  A    between atoms: _37  and  _38
REMARK   13  A    between atoms: _38  and  _39
REMARK   14  A    between atoms: _38  and  _41
REMARK   15  A    between atoms: _47  and  _48
REMARK   16  A    between atoms: _48  and  _49
REMARK   17  A    between atoms: _48  and  _51
REMARK   18  A    between atoms: _51  and  _52
REMARK   19  A    between atoms: _51  and  _53
REMARK                            x       y       z     vdW  Elec       q    Type
REMARK                         _______ _______ _______ _____ _____    ______ ____
ROOT
ATOM      1  CA  GLN A   2       7.465   0.034  21.124  0.00  0.00    +0.159 C 
ENDROOT
BRANCH   1   3
ATOM      2  C   LEU A   1       7.101   2.409  21.757  0.00  0.00    +0.230 C 
ATOM      3  N   GLN A   2       7.929   1.320  21.640  0.00  0.00    -0.303 N 
ATOM      4  H   GLN A   2       8.914   1.392  21.877  0.00  0.00    +0.149 HD
ATOM      5  O   LEU A   1       5.912   2.375  21.440  0.00  0.00    -0.274 OA
BRANCH   2   6
ATOM      6  CA  LEU A   1       7.786   3.684  22.302  0.00  0.00    +0.138 C 
BRANCH   6   7
ATOM      7  N   LEU A   1       7.095   4.875  21.767  0.00  0.00    -0.320 NA
ATOM      8  H1  LEU A   1       6.142   4.600  21.518  0.00  0.00    +0.119 HD
ATOM      9  H2  LEU A   1       6.954   5.523  22.547  0.00  0.00    +0.119 HD
ENDBRANCH   6   7
BRANCH   6  10
ATOM     10  CB  LEU A   1       7.766   3.669  23.839  0.00  0.00    +0.031 C 
BRANCH  10  11
ATOM     11  CG  LEU A   1       9.059   3.163  24.512  0.00  0.00    -0.015 C 
ATOM     12  CD2 LEU A   1       8.876   1.708  24.953  0.00  0.00    +0.007 C 
ATOM     13  CD1 LEU A   1      10.276   3.274  23.591  0.00  0.00    +0.007 C 
ENDBRANCH  10  11
ENDBRANCH   6  10
ENDBRANCH   2   6
ENDBRANCH   1   3
BRANCH   1  14
ATOM     14  C   GLN A   2       8.310  -1.047  21.823  0.00  0.00    +0.234 C 
ATOM     15  O   GLN A   2       9.401  -1.409  21.383  0.00  0.00    -0.274 OA
ATOM     16  N   ALA A   3       7.725  -1.613  22.927  0.00  0.00    -0.303 N 
ATOM     17  H   ALA A   3       6.838  -1.268  23.285  0.00  0.00    +0.149 HD
BRANCH  16  18
ATOM     18  CA  ALA A   3       8.298  -2.756  23.625  0.00  0.00    +0.156 C 
ATOM     19  CB  ALA A   3       8.420  -2.504  25.120  0.00  0.00    +0.038 C 
BRANCH  18  20
ATOM     20  C   ALA A   3       7.373  -3.954  23.356  0.00  0.00    +0.234 C 
ATOM     21  N   VAL A   4       6.502  -4.255  24.373  0.00  0.00    -0.304 N 
ATOM     22  H   VAL A   4       6.441  -3.652  25.190  0.00  0.00    +0.149 HD
ATOM     23  O   ALA A   3       7.412  -4.583  22.298  0.00  0.00    -0.274 OA
BRANCH  21  24
ATOM     24  CA  VAL A   4       5.527  -5.339  24.289  0.00  0.00    +0.138 C 
BRANCH  24  25
ATOM     25  CB  VAL A   4       5.310  -6.049  25.644  0.00  0.00    +0.010 C 
ATOM     26  CG2 VAL A   4       3.924  -5.761  26.232  0.00  0.00    +0.009 C 
ATOM     27  CG1 VAL A   4       6.373  -5.639  26.672  0.00  0.00    +0.009 C 
ENDBRANCH  24  25
BRANCH  24  28
ATOM     28  C   VAL A   4       4.238  -4.682  23.803  0.00  0.00    +0.245 C 
ATOM     29  O   VAL A   4       3.659  -5.006  22.766  0.00  0.00    -0.299 OA
ENDBRANCH  24  28
ENDBRANCH  21  24
ENDBRANCH  18  20
ENDBRANCH  16  18
ENDBRANCH   1  14
BRANCH   1  30
ATOM     30  CB  GLN A   2       7.642  -0.027  19.599  0.00  0.00    +0.041 C 
BRANCH  30  31
ATOM     31  CG  GLN A   2       6.336  -0.243  18.834  0.00  0.00    +0.098 C 
BRANCH  31  32
ATOM     32  CD  GLN A   2       5.812   1.007  18.159  0.00  0.00    +0.211 C 
ATOM     33  OE1 GLN A   2       6.311   1.465  17.136  0.00  0.00    -0.276 OA
ATOM     34  NE2 GLN A   2       4.804   1.669  18.789  0.00  0.00    -0.329 N 
ATOM     35 HE21 GLN A   2       4.281   1.291  19.565  0.00  0.00    +0.145 HD
ATOM     36 HE22 GLN A   2       4.437   2.490  18.323  0.00  0.00    +0.145 HD
ENDBRANCH  31  32
ENDBRANCH  30  31
ENDBRANCH   1  30
TORSDOF 14
ENDMDL
MODEL 16
REMARK VINA RESULT:      -6.1      2.258      4.423
REMARK  Name = LQAV-mmff94.pdb
REMARK  19 active torsions:
REMARK  status: ('A' for Active; 'I' for Inactive)
REMARK    1  A    between atoms: _1  and  _2
REMARK    2  A    between atoms: _2  and  _3
REMARK    3  A    between atoms: _2  and  _5
REMARK    4  A    between atoms: _5  and  _6
REMARK    5  A    between atoms: _6  and  _7
REMARK    6  A    between atoms: _6  and  _8
REMARK    7  A    between atoms: _20  and  _21
REMARK    8  A    between atoms: _21  and  _22
REMARK    9  A    between atoms: _21  and  _24
REMARK   10  A    between atoms: _24  and  _25
REMARK   11  A    between atoms: _25  and  _26
REMARK   12  A    between atoms: _37  and  _38
REMARK   13  A    between atoms: _38  and  _39
REMARK   14  A    between atoms: _38  and  _41
REMARK   15  A    between atoms: _47  and  _48
REMARK   16  A    between atoms: _48  and  _49
REMARK   17  A    between atoms: _48  and  _51
REMARK   18  A    between atoms: _51  and  _52
REMARK   19  A    between atoms: _51  and  _53
REMARK                            x       y       z     vdW  Elec       q    Type
REMARK                         _______ _______ _______ _____ _____    ______ ____
ROOT
ATOM      1  CA  GLN A   2       7.273  -0.248  20.801  0.00  0.00    +0.159 C 
ENDROOT
BRANCH   1   3
ATOM      2  C   LEU A   1       5.975  -2.298  21.336  0.00  0.00    +0.230 C 
ATOM      3  N   GLN A   2       6.786  -1.264  21.732  0.00  0.00    -0.303 N 
ATOM      4  H   GLN A   2       7.043  -1.153  22.709  0.00  0.00    +0.149 HD
ATOM      5  O   LEU A   1       5.606  -2.443  20.171  0.00  0.00    -0.274 OA
BRANCH   2   6
ATOM      6  CA  LEU A   1       5.548  -3.255  22.474  0.00  0.00    +0.138 C 
BRANCH   6   7
ATOM      7  N   LEU A   1       6.410  -4.454  22.450  0.00  0.00    -0.320 NA
ATOM      8  H1  LEU A   1       6.951  -4.436  21.583  0.00  0.00    +0.119 HD
ATOM      9  H2  LEU A   1       7.124  -4.333  23.173  0.00  0.00    +0.119 HD
ENDBRANCH   6   7
BRANCH   6  10
ATOM     10  CB  LEU A   1       5.639  -2.529  23.826  0.00  0.00    +0.031 C 
BRANCH  10  11
ATOM     11  CG  LEU A   1       4.559  -2.916  24.858  0.00  0.00    -0.015 C 
ATOM     12  CD2 LEU A   1       4.839  -4.322  25.396  0.00  0.00    +0.007 C 
ATOM     13  CD1 LEU A   1       4.482  -1.924  26.019  0.00  0.00    +0.007 C 
ENDBRANCH  10  11
ENDBRANCH   6  10
ENDBRANCH   2   6
ENDBRANCH   1   3
BRANCH   1  14
ATOM     14  C   GLN A   2       8.696   0.119  21.261  0.00  0.00    +0.234 C 
ATOM     15  O   GLN A   2       9.680  -0.544  20.934  0.00  0.00    -0.274 OA
ATOM     16  N   ALA A   3       8.769   1.196  22.107  0.00  0.00    -0.303 N 
ATOM     17  H   ALA A   3       7.941   1.744  22.330  0.00  0.00    +0.149 HD
BRANCH  16  18
ATOM     18  CA  ALA A   3      10.003   1.597  22.770  0.00  0.00    +0.156 C 
ATOM     19  CB  ALA A   3       9.900   2.993  23.363  0.00  0.00    +0.038 C 
BRANCH  18  20
ATOM     20  C   ALA A   3      10.273   0.562  23.875  0.00  0.00    +0.234 C 
ATOM     21  N   VAL A   4       9.375  -0.474  23.932  0.00  0.00    -0.304 N 
ATOM     22  H   VAL A   4       8.652  -0.564  23.222  0.00  0.00    +0.149 HD
ATOM     23  O   ALA A   3      11.233   0.661  24.639  0.00  0.00    -0.274 OA
BRANCH  21  24
ATOM     24  CA  VAL A   4       9.485  -1.567  24.894  0.00  0.00    +0.138 C 
BRANCH  24  25
ATOM     25  CB  VAL A   4       8.244  -1.679  25.809  0.00  0.00    +0.010 C 
ATOM     26  CG2 VAL A   4       8.217  -0.583  26.881  0.00  0.00    +0.009 C 
ATOM     27  CG1 VAL A   4       8.174  -3.045  26.502  0.00  0.00    +0.009 C 
ENDBRANCH  24  25
BRANCH  24  28
ATOM     28  C   VAL A   4       9.658  -2.828  24.051  0.00  0.00    +0.245 C 
ATOM     29  O   VAL A   4       9.026  -3.048  23.018  0.00  0.00    -0.299 OA
ENDBRANCH  24  28
ENDBRANCH  21  24
ENDBRANCH  18  20
ENDBRANCH  16  18
ENDBRANCH   1  14
BRANCH   1  30
ATOM     30  CB  GLN A   2       6.351   0.981  20.820  0.00  0.00    +0.041 C 
BRANCH  30  31
ATOM     31  CG  GLN A   2       5.547   1.169  19.534  0.00  0.00    +0.098 C 
BRANCH  31  32
ATOM     32  CD  GLN A   2       6.178   0.519  18.321  0.00  0.00    +0.211 C 
ATOM     33  OE1 GLN A   2       7.155   0.993  17.751  0.00  0.00    -0.276 OA
ATOM     34  NE2 GLN A   2       5.554  -0.582  17.819  0.00  0.00    -0.329 N 
ATOM     35 HE21 GLN A   2       4.820  -1.080  18.300  0.00  0.00    +0.145 HD
ATOM     36 HE22 GLN A   2       5.992  -1.030  17.024  0.00  0.00    +0.145 HD
ENDBRANCH  31  32
ENDBRANCH  30  31
ENDBRANCH   1  30
TORSDOF 14
ENDMDL
MODEL 17
REMARK VINA RESULT:      -6.1      3.073      8.247
REMARK  Name = LQAV-mmff94.pdb
REMARK  19 active torsions:
REMARK  status: ('A' for Active; 'I' for Inactive)
REMARK    1  A    between atoms: _1  and  _2
REMARK    2  A    between atoms: _2  and  _3
REMARK    3  A    between atoms: _2  and  _5
REMARK    4  A    between atoms: _5  and  _6
REMARK    5  A    between atoms: _6  and  _7
REMARK    6  A    between atoms: _6  and  _8
REMARK    7  A    between atoms: _20  and  _21
REMARK    8  A    between atoms: _21  and  _22
REMARK    9  A    between atoms: _21  and  _24
REMARK   10  A    between atoms: _24  and  _25
REMARK   11  A    between atoms: _25  and  _26
REMARK   12  A    between atoms: _37  and  _38
REMARK   13  A    between atoms: _38  and  _39
REMARK   14  A    between atoms: _38  and  _41
REMARK   15  A    between atoms: _47  and  _48
REMARK   16  A    between atoms: _48  and  _49
REMARK   17  A    between atoms: _48  and  _51
REMARK   18  A    between atoms: _51  and  _52
REMARK   19  A    between atoms: _51  and  _53
REMARK                            x       y       z     vdW  Elec       q    Type
REMARK                         _______ _______ _______ _____ _____    ______ ____
ROOT
ATOM      1  CA  GLN A   2       5.316  -4.217  26.737  0.00  0.00    +0.159 C 
ENDROOT
BRANCH   1   3
ATOM      2  C   LEU A   1       4.536  -6.192  25.446  0.00  0.00    +0.230 C 
ATOM      3  N   GLN A   2       5.289  -5.047  25.534  0.00  0.00    -0.303 N 
ATOM      4  H   GLN A   2       5.889  -4.762  24.765  0.00  0.00    +0.149 HD
ATOM      5  O   LEU A   1       3.830  -6.594  26.369  0.00  0.00    -0.274 OA
BRANCH   2   6
ATOM      6  CA  LEU A   1       4.660  -6.943  24.099  0.00  0.00    +0.138 C 
BRANCH   6   7
ATOM      7  N   LEU A   1       3.402  -7.667  23.827  0.00  0.00    -0.320 NA
ATOM      8  H1  LEU A   1       3.586  -8.352  23.090  0.00  0.00    +0.119 HD
ATOM      9  H2  LEU A   1       3.203  -8.250  24.643  0.00  0.00    +0.119 HD
ENDBRANCH   6   7
BRANCH   6  10
ATOM     10  CB  LEU A   1       4.985  -5.945  22.975  0.00  0.00    +0.031 C 
BRANCH  10  11
ATOM     11  CG  LEU A   1       6.317  -6.193  22.236  0.00  0.00    -0.015 C 
ATOM     12  CD2 LEU A   1       6.183  -5.762  20.773  0.00  0.00    +0.007 C 
ATOM     13  CD1 LEU A   1       7.488  -5.455  22.886  0.00  0.00    +0.007 C 
ENDBRANCH  10  11
ENDBRANCH   6  10
ENDBRANCH   2   6
ENDBRANCH   1   3
BRANCH   1  14
ATOM     14  C   GLN A   2       5.243  -2.755  26.259  0.00  0.00    +0.234 C 
ATOM     15  O   GLN A   2       4.388  -1.974  26.675  0.00  0.00    -0.274 OA
ATOM     16  N   ALA A   3       6.159  -2.416  25.296  0.00  0.00    -0.303 N 
ATOM     17  H   ALA A   3       6.874  -3.075  24.998  0.00  0.00    +0.149 HD
BRANCH  16  18
ATOM     18  CA  ALA A   3       6.144  -1.131  24.610  0.00  0.00    +0.156 C 
ATOM     19  CB  ALA A   3       6.939  -0.076  25.366  0.00  0.00    +0.038 C 
BRANCH  18  20
ATOM     20  C   ALA A   3       6.747  -1.361  23.215  0.00  0.00    +0.234 C 
ATOM     21  N   VAL A   4       7.879  -0.634  22.945  0.00  0.00    -0.304 N 
ATOM     22  H   VAL A   4       8.308  -0.065  23.671  0.00  0.00    +0.149 HD
ATOM     23  O   ALA A   3       6.248  -2.150  22.412  0.00  0.00    -0.274 OA
BRANCH  21  24
ATOM     24  CA  VAL A   4       8.610  -0.742  21.685  0.00  0.00    +0.138 C 
BRANCH  24  25
ATOM     25  CB  VAL A   4       8.432   0.504  20.788  0.00  0.00    +0.010 C 
ATOM     26  CG2 VAL A   4       7.881   1.704  21.568  0.00  0.00    +0.009 C 
ATOM     27  CG1 VAL A   4       7.499   0.219  19.604  0.00  0.00    +0.009 C 
ENDBRANCH  24  25
BRANCH  24  28
ATOM     28  C   VAL A   4      10.072  -0.925  22.083  0.00  0.00    +0.245 C 
ATOM     29  O   VAL A   4      10.540  -1.992  22.480  0.00  0.00    -0.299 OA
ENDBRANCH  24  28
ENDBRANCH  21  24
ENDBRANCH  18  20
ENDBRANCH  16  18
ENDBRANCH   1  14
BRANCH   1  30
ATOM     30  CB  GLN A   2       6.603  -4.474  27.536  0.00  0.00    +0.041 C 
BRANCH  30  31
ATOM     31  CG  GLN A   2       7.602  -5.384  26.822  0.00  0.00    +0.098 C 
BRANCH  31  32
ATOM     32  CD  GLN A   2       8.829  -4.659  26.312  0.00  0.00    +0.211 C 
ATOM     33  OE1 GLN A   2       8.865  -3.441  26.168  0.00  0.00    -0.276 OA
ATOM     34  NE2 GLN A   2       9.882  -5.429  25.925  0.00  0.00    -0.329 N 
ATOM     35 HE21 GLN A   2       9.957  -6.417  26.119  0.00  0.00    +0.145 HD
ATOM     36 HE22 GLN A   2      10.712  -4.942  25.609  0.00  0.00    +0.145 HD
ENDBRANCH  31  32
ENDBRANCH  30  31
ENDBRANCH   1  30
TORSDOF 14
ENDMDL
MODEL 18
REMARK VINA RESULT:      -6.1      2.452      7.362
REMARK  Name = LQAV-mmff94.pdb
REMARK  19 active torsions:
REMARK  status: ('A' for Active; 'I' for Inactive)
REMARK    1  A    between atoms: _1  and  _2
REMARK    2  A    between atoms: _2  and  _3
REMARK    3  A    between atoms: _2  and  _5
REMARK    4  A    between atoms: _5  and  _6
REMARK    5  A    between atoms: _6  and  _7
REMARK    6  A    between atoms: _6  and  _8
REMARK    7  A    between atoms: _20  and  _21
REMARK    8  A    between atoms: _21  and  _22
REMARK    9  A    between atoms: _21  and  _24
REMARK   10  A    between atoms: _24  and  _25
REMARK   11  A    between atoms: _25  and  _26
REMARK   12  A    between atoms: _37  and  _38
REMARK   13  A    between atoms: _38  and  _39
REMARK   14  A    between atoms: _38  and  _41
REMARK   15  A    between atoms: _47  and  _48
REMARK   16  A    between atoms: _48  and  _49
REMARK   17  A    between atoms: _48  and  _51
REMARK   18  A    between atoms: _51  and  _52
REMARK   19  A    between atoms: _51  and  _53
REMARK                            x       y       z     vdW  Elec       q    Type
REMARK                         _______ _______ _______ _____ _____    ______ ____
ROOT
ATOM      1  CA  GLN A   2       8.482  -3.036  23.673  0.00  0.00    +0.159 C 
ENDROOT
BRANCH   1   3
ATOM      2  C   LEU A   1       8.108  -4.957  25.203  0.00  0.00    +0.230 C 
ATOM      3  N   GLN A   2       7.686  -3.773  24.652  0.00  0.00    -0.303 N 
ATOM      4  H   GLN A   2       6.774  -3.390  24.885  0.00  0.00    +0.149 HD
ATOM      5  O   LEU A   1       9.186  -5.475  24.915  0.00  0.00    -0.274 OA
BRANCH   2   6
ATOM      6  CA  LEU A   1       7.113  -5.594  26.202  0.00  0.00    +0.138 C 
BRANCH   6   7
ATOM      7  N   LEU A   1       7.787  -5.790  27.502  0.00  0.00    -0.320 NA
ATOM      8  H1  LEU A   1       8.369  -4.968  27.682  0.00  0.00    +0.119 HD
ATOM      9  H2  LEU A   1       7.070  -5.731  28.230  0.00  0.00    +0.119 HD
ENDBRANCH   6   7
BRANCH   6  10
ATOM     10  CB  LEU A   1       5.873  -4.697  26.345  0.00  0.00    +0.031 C 
BRANCH  10  11
ATOM     11  CG  LEU A   1       4.572  -5.266  25.742  0.00  0.00    -0.015 C 
ATOM     12  CD2 LEU A   1       3.886  -4.195  24.889  0.00  0.00    +0.007 C 
ATOM     13  CD1 LEU A   1       4.821  -6.517  24.898  0.00  0.00    +0.007 C 
ENDBRANCH  10  11
ENDBRANCH   6  10
ENDBRANCH   2   6
ENDBRANCH   1   3
BRANCH   1  14
ATOM     14  C   GLN A   2       8.530  -1.576  24.160  0.00  0.00    +0.234 C 
ATOM     15  O   GLN A   2       7.611  -1.072  24.806  0.00  0.00    -0.274 OA
ATOM     16  N   ALA A   3       9.638  -0.871  23.764  0.00  0.00    -0.303 N 
ATOM     17  H   ALA A   3      10.396  -1.326  23.260  0.00  0.00    +0.149 HD
BRANCH  16  18
ATOM     18  CA  ALA A   3       9.787   0.560  23.992  0.00  0.00    +0.156 C 
ATOM     19  CB  ALA A   3      11.222   0.934  24.329  0.00  0.00    +0.038 C 
BRANCH  18  20
ATOM     20  C   ALA A   3       9.336   1.267  22.703  0.00  0.00    +0.234 C 
ATOM     21  N   VAL A   4       7.994   1.175  22.430  0.00  0.00    -0.304 N 
ATOM     22  H   VAL A   4       7.364   0.741  23.100  0.00  0.00    +0.149 HD
ATOM     23  O   ALA A   3      10.128   1.877  21.984  0.00  0.00    -0.274 OA
BRANCH  21  24
ATOM     24  CA  VAL A   4       7.376   1.807  21.267  0.00  0.00    +0.138 C 
BRANCH  24  25
ATOM     25  CB  VAL A   4       6.676   0.789  20.341  0.00  0.00    +0.010 C 
ATOM     26  CG2 VAL A   4       7.662   0.096  19.393  0.00  0.00    +0.009 C 
ATOM     27  CG1 VAL A   4       5.574   1.450  19.503  0.00  0.00    +0.009 C 
ENDBRANCH  24  25
BRANCH  24  28
ATOM     28  C   VAL A   4       6.374   2.806  21.840  0.00  0.00    +0.245 C 
ATOM     29  O   VAL A   4       6.661   3.966  22.133  0.00  0.00    -0.299 OA
ENDBRANCH  24  28
ENDBRANCH  21  24
ENDBRANCH  18  20
ENDBRANCH  16  18
ENDBRANCH   1  14
BRANCH   1  30
ATOM     30  CB  GLN A   2       7.841  -3.133  22.279  0.00  0.00    +0.041 C 
BRANCH  30  31
ATOM     31  CG  GLN A   2       6.510  -3.882  22.263  0.00  0.00    +0.098 C 
BRANCH  31  32
ATOM     32  CD  GLN A   2       6.547  -5.173  21.472  0.00  0.00    +0.211 C 
ATOM     33  OE1 GLN A   2       5.899  -5.337  20.444  0.00  0.00    -0.276 OA
ATOM     34  NE2 GLN A   2       7.269  -6.198  22.001  0.00  0.00    -0.329 N 
ATOM     35 HE21 GLN A   2       7.907  -6.095  22.776  0.00  0.00    +0.145 HD
ATOM     36 HE22 GLN A   2       7.314  -7.051  21.458  0.00  0.00    +0.145 HD
ENDBRANCH  31  32
ENDBRANCH  30  31
ENDBRANCH   1  30
TORSDOF 14
ENDMDL
MODEL 19
REMARK VINA RESULT:      -6.0      2.510      4.829
REMARK  Name = LQAV-mmff94.pdb
REMARK  19 active torsions:
REMARK  status: ('A' for Active; 'I' for Inactive)
REMARK    1  A    between atoms: _1  and  _2
REMARK    2  A    between atoms: _2  and  _3
REMARK    3  A    between atoms: _2  and  _5
REMARK    4  A    between atoms: _5  and  _6
REMARK    5  A    between atoms: _6  and  _7
REMARK    6  A    between atoms: _6  and  _8
REMARK    7  A    between atoms: _20  and  _21
REMARK    8  A    between atoms: _21  and  _22
REMARK    9  A    between atoms: _21  and  _24
REMARK   10  A    between atoms: _24  and  _25
REMARK   11  A    between atoms: _25  and  _26
REMARK   12  A    between atoms: _37  and  _38
REMARK   13  A    between atoms: _38  and  _39
REMARK   14  A    between atoms: _38  and  _41
REMARK   15  A    between atoms: _47  and  _48
REMARK   16  A    between atoms: _48  and  _49
REMARK   17  A    between atoms: _48  and  _51
REMARK   18  A    between atoms: _51  and  _52
REMARK   19  A    between atoms: _51  and  _53
REMARK                            x       y       z     vdW  Elec       q    Type
REMARK                         _______ _______ _______ _____ _____    ______ ____
ROOT
ATOM      1  CA  GLN A   2       8.240  -0.755  21.313  0.00  0.00    +0.159 C 
ENDROOT
BRANCH   1   3
ATOM      2  C   LEU A   1       6.970  -2.754  22.065  0.00  0.00    +0.230 C 
ATOM      3  N   GLN A   2       6.999  -1.505  21.496  0.00  0.00    -0.303 N 
ATOM      4  H   GLN A   2       6.147  -1.077  21.144  0.00  0.00    +0.149 HD
ATOM      5  O   LEU A   1       7.985  -3.325  22.464  0.00  0.00    -0.274 OA
BRANCH   2   6
ATOM      6  CA  LEU A   1       5.563  -3.392  22.149  0.00  0.00    +0.138 C 
BRANCH   6   7
ATOM      7  N   LEU A   1       5.531  -4.611  21.315  0.00  0.00    -0.320 NA
ATOM      8  H1  LEU A   1       4.886  -5.274  21.751  0.00  0.00    +0.119 HD
ATOM      9  H2  LEU A   1       5.060  -4.370  20.439  0.00  0.00    +0.119 HD
ENDBRANCH   6   7
BRANCH   6  10
ATOM     10  CB  LEU A   1       5.222  -3.708  23.613  0.00  0.00    +0.031 C 
BRANCH  10  11
ATOM     11  CG  LEU A   1       4.029  -4.666  23.822  0.00  0.00    -0.015 C 
ATOM     12  CD2 LEU A   1       4.518  -5.965  24.470  0.00  0.00    +0.007 C 
ATOM     13  CD1 LEU A   1       2.928  -4.043  24.681  0.00  0.00    +0.007 C 
ENDBRANCH  10  11
ENDBRANCH   6  10
ENDBRANCH   2   6
ENDBRANCH   1   3
BRANCH   1  14
ATOM     14  C   GLN A   2       8.432   0.087  22.587  0.00  0.00    +0.234 C 
ATOM     15  O   GLN A   2       8.879   1.234  22.551  0.00  0.00    -0.274 OA
ATOM     16  N   ALA A   3       8.129  -0.559  23.758  0.00  0.00    -0.303 N 
ATOM     17  H   ALA A   3       7.729  -1.494  23.752  0.00  0.00    +0.149 HD
BRANCH  16  18
ATOM     18  CA  ALA A   3       8.395   0.017  25.070  0.00  0.00    +0.156 C 
ATOM     19  CB  ALA A   3       7.265   0.926  25.529  0.00  0.00    +0.038 C 
BRANCH  18  20
ATOM     20  C   ALA A   3       8.570  -1.157  26.047  0.00  0.00    +0.234 C 
ATOM     21  N   VAL A   4       8.245  -2.389  25.537  0.00  0.00    -0.304 N 
ATOM     22  H   VAL A   4       7.997  -2.488  24.555  0.00  0.00    +0.149 HD
ATOM     23  O   ALA A   3       8.983  -0.993  27.195  0.00  0.00    -0.274 OA
BRANCH  21  24
ATOM     24  CA  VAL A   4       8.375  -3.625  26.305  0.00  0.00    +0.138 C 
BRANCH  24  25
ATOM     25  CB  VAL A   4       7.012  -4.295  26.585  0.00  0.00    +0.010 C 
ATOM     26  CG2 VAL A   4       6.003  -3.317  27.198  0.00  0.00    +0.009 C 
ATOM     27  CG1 VAL A   4       7.157  -5.501  27.522  0.00  0.00    +0.009 C 
ENDBRANCH  24  25
BRANCH  24  28
ATOM     28  C   VAL A   4       9.267  -4.530  25.459  0.00  0.00    +0.245 C 
ATOM     29  O   VAL A   4      10.097  -4.108  24.655  0.00  0.00    -0.299 OA
ENDBRANCH  24  28
ENDBRANCH  21  24
ENDBRANCH  18  20
ENDBRANCH  16  18
ENDBRANCH   1  14
BRANCH   1  30
ATOM     30  CB  GLN A   2       8.146   0.140  20.067  0.00  0.00    +0.041 C 
BRANCH  30  31
ATOM     31  CG  GLN A   2       6.727   0.611  19.751  0.00  0.00    +0.098 C 
BRANCH  31  32
ATOM     32  CD  GLN A   2       6.283   0.299  18.337  0.00  0.00    +0.211 C 
ATOM     33  OE1 GLN A   2       6.374   1.111  17.422  0.00  0.00    -0.276 OA
ATOM     34  NE2 GLN A   2       5.684  -0.905  18.132  0.00  0.00    -0.329 N 
ATOM     35 HE21 GLN A   2       5.678  -1.653  18.810  0.00  0.00    +0.145 HD
ATOM     36 HE22 GLN A   2       5.411  -1.123  17.182  0.00  0.00    +0.145 HD
ENDBRANCH  31  32
ENDBRANCH  30  31
ENDBRANCH   1  30
TORSDOF 14
ENDMDL
MODEL 20
REMARK VINA RESULT:      -6.0      2.932      4.442
REMARK  Name = LQAV-mmff94.pdb
REMARK  19 active torsions:
REMARK  status: ('A' for Active; 'I' for Inactive)
REMARK    1  A    between atoms: _1  and  _2
REMARK    2  A    between atoms: _2  and  _3
REMARK    3  A    between atoms: _2  and  _5
REMARK    4  A    between atoms: _5  and  _6
REMARK    5  A    between atoms: _6  and  _7
REMARK    6  A    between atoms: _6  and  _8
REMARK    7  A    between atoms: _20  and  _21
REMARK    8  A    between atoms: _21  and  _22
REMARK    9  A    between atoms: _21  and  _24
REMARK   10  A    between atoms: _24  and  _25
REMARK   11  A    between atoms: _25  and  _26
REMARK   12  A    between atoms: _37  and  _38
REMARK   13  A    between atoms: _38  and  _39
REMARK   14  A    between atoms: _38  and  _41
REMARK   15  A    between atoms: _47  and  _48
REMARK   16  A    between atoms: _48  and  _49
REMARK   17  A    between atoms: _48  and  _51
REMARK   18  A    between atoms: _51  and  _52
REMARK   19  A    between atoms: _51  and  _53
REMARK                            x       y       z     vdW  Elec       q    Type
REMARK                         _______ _______ _______ _____ _____    ______ ____
ROOT
ATOM      1  CA  GLN A   2       7.124  -0.830  21.302  0.00  0.00    +0.159 C 
ENDROOT
BRANCH   1   3
ATOM      2  C   LEU A   1       8.461  -0.040  23.241  0.00  0.00    +0.230 C 
ATOM      3  N   GLN A   2       8.190  -0.990  22.287  0.00  0.00    -0.303 N 
ATOM      4  H   GLN A   2       8.761  -1.828  22.215  0.00  0.00    +0.149 HD
ATOM      5  O   LEU A   1       7.822   1.007  23.334  0.00  0.00    -0.274 OA
BRANCH   2   6
ATOM      6  CA  LEU A   1       9.644  -0.385  24.177  0.00  0.00    +0.138 C 
BRANCH   6   7
ATOM      7  N   LEU A   1      10.679   0.662  24.059  0.00  0.00    -0.320 NA
ATOM      8  H1  LEU A   1      11.281   0.605  24.884  0.00  0.00    +0.119 HD
ATOM      9  H2  LEU A   1      11.304   0.390  23.296  0.00  0.00    +0.119 HD
ENDBRANCH   6   7
BRANCH   6  10
ATOM     10  CB  LEU A   1       9.142  -0.514  25.623  0.00  0.00    +0.031 C 
BRANCH  10  11
ATOM     11  CG  LEU A   1       8.580  -1.899  26.007  0.00  0.00    -0.015 C 
ATOM     12  CD2 LEU A   1       7.050  -1.844  26.040  0.00  0.00    +0.007 C 
ATOM     13  CD1 LEU A   1       9.037  -2.998  25.046  0.00  0.00    +0.007 C 
ENDBRANCH  10  11
ENDBRANCH   6  10
ENDBRANCH   2   6
ENDBRANCH   1   3
BRANCH   1  14
ATOM     14  C   GLN A   2       6.418  -2.195  21.198  0.00  0.00    +0.234 C 
ATOM     15  O   GLN A   2       5.562  -2.424  20.344  0.00  0.00    -0.274 OA
ATOM     16  N   ALA A   3       6.771  -3.103  22.164  0.00  0.00    -0.303 N 
ATOM     17  H   ALA A   3       7.507  -2.895  22.834  0.00  0.00    +0.149 HD
BRANCH  16  18
ATOM     18  CA  ALA A   3       6.099  -4.386  22.324  0.00  0.00    +0.156 C 
ATOM     19  CB  ALA A   3       7.055  -5.553  22.131  0.00  0.00    +0.038 C 
BRANCH  18  20
ATOM     20  C   ALA A   3       5.506  -4.406  23.742  0.00  0.00    +0.234 C 
ATOM     21  N   VAL A   4       6.078  -5.313  24.598  0.00  0.00    -0.304 N 
ATOM     22  H   VAL A   4       6.891  -5.850  24.306  0.00  0.00    +0.149 HD
ATOM     23  O   ALA A   3       4.592  -3.651  24.076  0.00  0.00    -0.274 OA
BRANCH  21  24
ATOM     24  CA  VAL A   4       5.668  -5.457  25.993  0.00  0.00    +0.138 C 
BRANCH  24  25
ATOM     25  CB  VAL A   4       4.830  -6.732  26.236  0.00  0.00    +0.010 C 
ATOM     26  CG2 VAL A   4       4.156  -7.233  24.954  0.00  0.00    +0.009 C 
ATOM     27  CG1 VAL A   4       3.750  -6.503  27.301  0.00  0.00    +0.009 C 
ENDBRANCH  24  25
BRANCH  24  28
ATOM     28  C   VAL A   4       6.969  -5.495  26.791  0.00  0.00    +0.245 C 
ATOM     29  O   VAL A   4       7.064  -5.109  27.955  0.00  0.00    -0.299 OA
ENDBRANCH  24  28
ENDBRANCH  21  24
ENDBRANCH  18  20
ENDBRANCH  16  18
ENDBRANCH   1  14
BRANCH   1  30
ATOM     30  CB  GLN A   2       7.707  -0.405  19.945  0.00  0.00    +0.041 C 
BRANCH  30  31
ATOM     31  CG  GLN A   2       7.057   0.848  19.360  0.00  0.00    +0.098 C 
BRANCH  31  32
ATOM     32  CD  GLN A   2       5.705   0.594  18.727  0.00  0.00    +0.211 C 
ATOM     33  OE1 GLN A   2       4.725   1.295  18.956  0.00  0.00    -0.276 OA
ATOM     34  NE2 GLN A   2       5.589  -0.518  17.950  0.00  0.00    -0.329 N 
ATOM     35 HE21 GLN A   2       6.374  -1.069  17.637  0.00  0.00    +0.145 HD
ATOM     36 HE22 GLN A   2       4.692  -0.673  17.507  0.00  0.00    +0.145 HD
ENDBRANCH  31  32
ENDBRANCH  30  31
ENDBRANCH   1  30
TORSDOF 14
ENDMDL
