MODEL 1
REMARK VINA RESULT:      -6.6      0.000      0.000
REMARK  Name = LQNN-mmff94.pdb
REMARK  19 active torsions:
REMARK  status: ('A' for Active; 'I' for Inactive)
REMARK    1  A    between atoms: _1  and  _2
REMARK    2  A    between atoms: _2  and  _3
REMARK    3  A    between atoms: _2  and  _5
REMARK    4  A    between atoms: _5  and  _6
REMARK    5  A    between atoms: _6  and  _7
REMARK    6  A    between atoms: _6  and  _8
REMARK    7  A    between atoms: _20  and  _21
REMARK    8  A    between atoms: _21  and  _22
REMARK    9  A    between atoms: _21  and  _24
REMARK   10  A    between atoms: _24  and  _25
REMARK   11  A    between atoms: _25  and  _26
REMARK   12  A    between atoms: _37  and  _38
REMARK   13  A    between atoms: _38  and  _39
REMARK   14  A    between atoms: _38  and  _41
REMARK   15  A    between atoms: _41  and  _42
REMARK   16  A    between atoms: _51  and  _52
REMARK   17  A    between atoms: _52  and  _53
REMARK   18  A    between atoms: _52  and  _55
REMARK   19  A    between atoms: _55  and  _56
REMARK                            x       y       z     vdW  Elec       q    Type
REMARK                         _______ _______ _______ _____ _____    ______ ____
ROOT
ATOM      1  C   GLN A   2       8.341  -1.969  21.896  0.00  0.00    +0.234 C 
ATOM      2  O   GLN A   2       9.499  -1.692  22.215  0.00  0.00    -0.274 OA
ATOM      3  N   ASN A   3       7.616  -1.195  21.026  0.00  0.00    -0.302 N 
ATOM      4  H   ASN A   3       6.647  -1.430  20.817  0.00  0.00    +0.150 HD
ENDROOT
BRANCH   1   5
ATOM      5  CA  GLN A   2       7.590  -3.181  22.471  0.00  0.00    +0.159 C 
BRANCH   5   8
ATOM      6  C   LEU A   1       8.403  -4.364  24.493  0.00  0.00    +0.230 C 
ATOM      7  O   LEU A   1       8.585  -5.411  23.875  0.00  0.00    -0.274 OA
ATOM      8  N   GLN A   2       7.902  -3.233  23.896  0.00  0.00    -0.303 N 
ATOM      9  H   GLN A   2       7.716  -2.400  24.448  0.00  0.00    +0.149 HD
BRANCH   6  10
ATOM     10  CA  LEU A   1       8.726  -4.211  25.998  0.00  0.00    +0.138 C 
BRANCH  10  11
ATOM     11  N   LEU A   1       8.511  -2.808  26.401  0.00  0.00    -0.320 NA
ATOM     12  H1  LEU A   1       8.258  -2.797  27.391  0.00  0.00    +0.119 HD
ATOM     13  H2  LEU A   1       9.423  -2.342  26.386  0.00  0.00    +0.119 HD
ENDBRANCH  10  11
BRANCH  10  14
ATOM     14  CB  LEU A   1       7.842  -5.172  26.809  0.00  0.00    +0.031 C 
BRANCH  14  15
ATOM     15  CG  LEU A   1       6.324  -4.912  26.720  0.00  0.00    -0.015 C 
ATOM     16  CD2 LEU A   1       5.630  -6.120  26.083  0.00  0.00    +0.007 C 
ATOM     17  CD1 LEU A   1       5.703  -4.620  28.086  0.00  0.00    +0.007 C 
ENDBRANCH  14  15
ENDBRANCH  10  14
ENDBRANCH   6  10
ENDBRANCH   5   8
BRANCH   5  18
ATOM     18  CB  GLN A   2       6.075  -3.057  22.242  0.00  0.00    +0.041 C 
BRANCH  18  19
ATOM     19  CG  GLN A   2       5.326  -4.374  22.445  0.00  0.00    +0.098 C 
BRANCH  19  20
ATOM     20  CD  GLN A   2       5.860  -5.516  21.609  0.00  0.00    +0.211 C 
ATOM     21  OE1 GLN A   2       5.930  -5.458  20.387  0.00  0.00    -0.276 OA
ATOM     22  NE2 GLN A   2       6.202  -6.651  22.277  0.00  0.00    -0.329 N 
ATOM     23 HE21 GLN A   2       5.930  -6.827  23.234  0.00  0.00    +0.145 HD
ATOM     24 HE22 GLN A   2       6.475  -7.446  21.712  0.00  0.00    +0.145 HD
ENDBRANCH  19  20
ENDBRANCH  18  19
ENDBRANCH   5  18
ENDBRANCH   1   5
BRANCH   3  25
ATOM     25  CA  ASN A   3       8.092   0.090  20.517  0.00  0.00    +0.168 C 
BRANCH  25  26
ATOM     26  C   ASN A   3       7.731   1.127  21.596  0.00  0.00    +0.234 C 
ATOM     27  N   ASN A   4       8.749   1.477  22.446  0.00  0.00    -0.304 N 
ATOM     28  H   ASN A   4       9.696   1.134  22.295  0.00  0.00    +0.149 HD
ATOM     29  O   ASN A   3       6.605   1.621  21.685  0.00  0.00    -0.274 OA
BRANCH  27  30
ATOM     30  CA  ASN A   4       8.569   2.452  23.517  0.00  0.00    +0.145 C 
BRANCH  30  31
ATOM     31  C   ASN A   4       9.764   3.394  23.466  0.00  0.00    +0.245 C 
ATOM     32  O   ASN A   4      10.931   3.007  23.485  0.00  0.00    -0.299 OA
ENDBRANCH  30  31
BRANCH  30  33
ATOM     33  CB  ASN A   4       8.515   1.818  24.901  0.00  0.00    +0.125 C 
BRANCH  33  34
ATOM     34  CG  ASN A   4       8.580   0.308  24.943  0.00  0.00    +0.213 C 
ATOM     35  ND2 ASN A   4       9.810  -0.263  25.061  0.00  0.00    -0.329 N 
ATOM     36 HD21 ASN A   4      10.461   0.133  25.737  0.00  0.00    +0.145 HD
ATOM     37 HD22 ASN A   4       9.785  -1.278  25.114  0.00  0.00    +0.145 HD
ATOM     38  OD1 ASN A   4       7.584  -0.392  24.786  0.00  0.00    -0.276 OA
ENDBRANCH  33  34
ENDBRANCH  30  33
ENDBRANCH  27  30
ENDBRANCH  25  26
BRANCH  25  39
ATOM     39  CB  ASN A   3       7.438   0.488  19.200  0.00  0.00    +0.127 C 
BRANCH  39  40
ATOM     40  CG  ASN A   3       6.133  -0.192  18.857  0.00  0.00    +0.213 C 
ATOM     41  OD1 ASN A   3       6.102  -1.266  18.262  0.00  0.00    -0.276 OA
ATOM     42  ND2 ASN A   3       4.979   0.348  19.334  0.00  0.00    -0.329 N 
ATOM     43 HD21 ASN A   3       4.148  -0.146  19.025  0.00  0.00    +0.145 HD
ATOM     44 HD22 ASN A   3       4.860   1.360  19.309  0.00  0.00    +0.145 HD
ENDBRANCH  39  40
ENDBRANCH  25  39
ENDBRANCH   3  25
TORSDOF 17
ENDMDL
MODEL 2
REMARK VINA RESULT:      -6.1      1.501      2.988
REMARK  Name = LQNN-mmff94.pdb
REMARK  19 active torsions:
REMARK  status: ('A' for Active; 'I' for Inactive)
REMARK    1  A    between atoms: _1  and  _2
REMARK    2  A    between atoms: _2  and  _3
REMARK    3  A    between atoms: _2  and  _5
REMARK    4  A    between atoms: _5  and  _6
REMARK    5  A    between atoms: _6  and  _7
REMARK    6  A    between atoms: _6  and  _8
REMARK    7  A    between atoms: _20  and  _21
REMARK    8  A    between atoms: _21  and  _22
REMARK    9  A    between atoms: _21  and  _24
REMARK   10  A    between atoms: _24  and  _25
REMARK   11  A    between atoms: _25  and  _26
REMARK   12  A    between atoms: _37  and  _38
REMARK   13  A    between atoms: _38  and  _39
REMARK   14  A    between atoms: _38  and  _41
REMARK   15  A    between atoms: _41  and  _42
REMARK   16  A    between atoms: _51  and  _52
REMARK   17  A    between atoms: _52  and  _53
REMARK   18  A    between atoms: _52  and  _55
REMARK   19  A    between atoms: _55  and  _56
REMARK                            x       y       z     vdW  Elec       q    Type
REMARK                         _______ _______ _______ _____ _____    ______ ____
ROOT
ATOM      1  C   GLN A   2       8.518  -1.473  22.220  0.00  0.00    +0.234 C 
ATOM      2  O   GLN A   2       9.656  -1.413  21.752  0.00  0.00    -0.274 OA
ATOM      3  N   ASN A   3       7.496  -0.679  21.765  0.00  0.00    -0.302 N 
ATOM      4  H   ASN A   3       6.578  -0.725  22.204  0.00  0.00    +0.150 HD
ENDROOT
BRANCH   1   5
ATOM      5  CA  GLN A   2       8.146  -2.413  23.380  0.00  0.00    +0.159 C 
BRANCH   5   8
ATOM      6  C   LEU A   1       6.046  -3.597  22.800  0.00  0.00    +0.230 C 
ATOM      7  O   LEU A   1       5.348  -2.733  23.327  0.00  0.00    -0.274 OA
ATOM      8  N   GLN A   2       7.419  -3.534  22.795  0.00  0.00    -0.303 N 
ATOM      9  H   GLN A   2       7.966  -4.291  22.395  0.00  0.00    +0.149 HD
BRANCH   6  10
ATOM     10  CA  LEU A   1       5.453  -4.833  22.083  0.00  0.00    +0.138 C 
BRANCH  10  11
ATOM     11  N   LEU A   1       5.961  -4.882  20.699  0.00  0.00    -0.320 NA
ATOM     12  H1  LEU A   1       5.288  -4.405  20.096  0.00  0.00    +0.119 HD
ATOM     13  H2  LEU A   1       6.787  -4.277  20.654  0.00  0.00    +0.119 HD
ENDBRANCH  10  11
BRANCH  10  14
ATOM     14  CB  LEU A   1       5.828  -6.103  22.865  0.00  0.00    +0.031 C 
BRANCH  14  15
ATOM     15  CG  LEU A   1       4.792  -6.573  23.906  0.00  0.00    -0.015 C 
ATOM     16  CD2 LEU A   1       5.212  -6.104  25.302  0.00  0.00    +0.007 C 
ATOM     17  CD1 LEU A   1       3.383  -6.067  23.593  0.00  0.00    +0.007 C 
ENDBRANCH  14  15
ENDBRANCH  10  14
ENDBRANCH   6  10
ENDBRANCH   5   8
BRANCH   5  18
ATOM     18  CB  GLN A   2       9.398  -2.896  24.127  0.00  0.00    +0.041 C 
BRANCH  18  19
ATOM     19  CG  GLN A   2       9.079  -3.578  25.458  0.00  0.00    +0.098 C 
BRANCH  19  20
ATOM     20  CD  GLN A   2       8.994  -5.085  25.368  0.00  0.00    +0.211 C 
ATOM     21  OE1 GLN A   2       9.181  -5.692  24.319  0.00  0.00    -0.276 OA
ATOM     22  NE2 GLN A   2       8.631  -5.744  26.502  0.00  0.00    -0.329 N 
ATOM     23 HE21 GLN A   2       8.231  -5.276  27.303  0.00  0.00    +0.145 HD
ATOM     24 HE22 GLN A   2       8.486  -6.743  26.421  0.00  0.00    +0.145 HD
ENDBRANCH  19  20
ENDBRANCH  18  19
ENDBRANCH   5  18
ENDBRANCH   1   5
BRANCH   3  25
ATOM     25  CA  ASN A   3       7.696   0.400  20.798  0.00  0.00    +0.168 C 
BRANCH  25  26
ATOM     26  C   ASN A   3       7.882   1.680  21.631  0.00  0.00    +0.234 C 
ATOM     27  N   ASN A   4       9.010   1.721  22.412  0.00  0.00    -0.304 N 
ATOM     28  H   ASN A   4       9.711   0.984  22.355  0.00  0.00    +0.149 HD
ATOM     29  O   ASN A   3       7.079   2.614  21.592  0.00  0.00    -0.274 OA
BRANCH  27  30
ATOM     30  CA  ASN A   4       9.333   2.868  23.254  0.00  0.00    +0.145 C 
BRANCH  30  31
ATOM     31  C   ASN A   4      10.844   3.049  23.198  0.00  0.00    +0.245 C 
ATOM     32  O   ASN A   4      11.406   4.119  23.424  0.00  0.00    -0.299 OA
ENDBRANCH  30  31
BRANCH  30  33
ATOM     33  CB  ASN A   4       8.924   2.677  24.708  0.00  0.00    +0.125 C 
BRANCH  33  34
ATOM     34  CG  ASN A   4       8.588   1.263  25.124  0.00  0.00    +0.213 C 
ATOM     35  ND2 ASN A   4       9.572   0.534  25.720  0.00  0.00    -0.329 N 
ATOM     36 HD21 ASN A   4      10.135   0.984  26.438  0.00  0.00    +0.145 HD
ATOM     37 HD22 ASN A   4       9.275  -0.397  26.002  0.00  0.00    +0.145 HD
ATOM     38  OD1 ASN A   4       7.506   0.746  24.861  0.00  0.00    -0.276 OA
ENDBRANCH  33  34
ENDBRANCH  30  33
ENDBRANCH  27  30
ENDBRANCH  25  26
BRANCH  25  39
ATOM     39  CB  ASN A   3       6.513   0.581  19.856  0.00  0.00    +0.127 C 
BRANCH  39  40
ATOM     40  CG  ASN A   3       5.969  -0.667  19.200  0.00  0.00    +0.213 C 
ATOM     41  OD1 ASN A   3       5.701  -1.674  19.850  0.00  0.00    -0.276 OA
ATOM     42  ND2 ASN A   3       5.659  -0.617  17.876  0.00  0.00    -0.329 N 
ATOM     43 HD21 ASN A   3       5.338  -1.505  17.506  0.00  0.00    +0.145 HD
ATOM     44 HD22 ASN A   3       6.292  -0.136  17.237  0.00  0.00    +0.145 HD
ENDBRANCH  39  40
ENDBRANCH  25  39
ENDBRANCH   3  25
TORSDOF 17
ENDMDL
MODEL 3
REMARK VINA RESULT:      -6.1      2.078      6.639
REMARK  Name = LQNN-mmff94.pdb
REMARK  19 active torsions:
REMARK  status: ('A' for Active; 'I' for Inactive)
REMARK    1  A    between atoms: _1  and  _2
REMARK    2  A    between atoms: _2  and  _3
REMARK    3  A    between atoms: _2  and  _5
REMARK    4  A    between atoms: _5  and  _6
REMARK    5  A    between atoms: _6  and  _7
REMARK    6  A    between atoms: _6  and  _8
REMARK    7  A    between atoms: _20  and  _21
REMARK    8  A    between atoms: _21  and  _22
REMARK    9  A    between atoms: _21  and  _24
REMARK   10  A    between atoms: _24  and  _25
REMARK   11  A    between atoms: _25  and  _26
REMARK   12  A    between atoms: _37  and  _38
REMARK   13  A    between atoms: _38  and  _39
REMARK   14  A    between atoms: _38  and  _41
REMARK   15  A    between atoms: _41  and  _42
REMARK   16  A    between atoms: _51  and  _52
REMARK   17  A    between atoms: _52  and  _53
REMARK   18  A    between atoms: _52  and  _55
REMARK   19  A    between atoms: _55  and  _56
REMARK                            x       y       z     vdW  Elec       q    Type
REMARK                         _______ _______ _______ _____ _____    ______ ____
ROOT
ATOM      1  C   GLN A   2       9.235  -1.737  23.809  0.00  0.00    +0.234 C 
ATOM      2  O   GLN A   2      10.243  -2.192  23.267  0.00  0.00    -0.274 OA
ATOM      3  N   ASN A   3       7.970  -2.129  23.450  0.00  0.00    -0.302 N 
ATOM      4  H   ASN A   3       7.157  -1.701  23.891  0.00  0.00    +0.150 HD
ENDROOT
BRANCH   1   5
ATOM      5  CA  GLN A   2       9.297  -0.663  24.908  0.00  0.00    +0.159 C 
BRANCH   5   8
ATOM      6  C   LEU A   1      10.555   1.314  24.099  0.00  0.00    +0.230 C 
ATOM      7  O   LEU A   1      11.614   0.903  24.570  0.00  0.00    -0.274 OA
ATOM      8  N   GLN A   2       9.372   0.627  24.232  0.00  0.00    -0.303 N 
ATOM      9  H   GLN A   2       8.507   1.021  23.874  0.00  0.00    +0.149 HD
BRANCH   6  10
ATOM     10  CA  LEU A   1      10.448   2.635  23.302  0.00  0.00    +0.138 C 
BRANCH  10  11
ATOM     11  N   LEU A   1      10.141   2.329  21.891  0.00  0.00    -0.320 NA
ATOM     12  H1  LEU A   1       9.383   1.644  21.873  0.00  0.00    +0.119 HD
ATOM     13  H2  LEU A   1       9.712   3.166  21.484  0.00  0.00    +0.119 HD
ENDBRANCH  10  11
BRANCH  10  14
ATOM     14  CB  LEU A   1       9.365   3.524  23.934  0.00  0.00    +0.031 C 
BRANCH  14  15
ATOM     15  CG  LEU A   1       9.638   5.041  23.886  0.00  0.00    -0.015 C 
ATOM     16  CD2 LEU A   1       9.117   5.701  25.166  0.00  0.00    +0.007 C 
ATOM     17  CD1 LEU A   1      11.123   5.359  23.709  0.00  0.00    +0.007 C 
ENDBRANCH  14  15
ENDBRANCH  10  14
ENDBRANCH   6  10
ENDBRANCH   5   8
BRANCH   5  18
ATOM     18  CB  GLN A   2       8.067  -0.735  25.826  0.00  0.00    +0.041 C 
BRANCH  18  19
ATOM     19  CG  GLN A   2       7.155   0.486  25.706  0.00  0.00    +0.098 C 
BRANCH  19  20
ATOM     20  CD  GLN A   2       5.861   0.213  24.971  0.00  0.00    +0.211 C 
ATOM     21  OE1 GLN A   2       5.460  -0.923  24.748  0.00  0.00    -0.276 OA
ATOM     22  NE2 GLN A   2       5.188   1.298  24.501  0.00  0.00    -0.329 N 
ATOM     23 HE21 GLN A   2       5.602   2.218  24.443  0.00  0.00    +0.145 HD
ATOM     24 HE22 GLN A   2       4.370   1.114  23.932  0.00  0.00    +0.145 HD
ENDBRANCH  19  20
ENDBRANCH  18  19
ENDBRANCH   5  18
ENDBRANCH   1   5
BRANCH   3  25
ATOM     25  CA  ASN A   3       7.701  -3.001  22.308  0.00  0.00    +0.168 C 
BRANCH  25  26
ATOM     26  C   ASN A   3       6.601  -2.296  21.494  0.00  0.00    +0.234 C 
ATOM     27  N   ASN A   4       6.999  -1.181  20.801  0.00  0.00    -0.304 N 
ATOM     28  H   ASN A   4       7.981  -0.912  20.765  0.00  0.00    +0.149 HD
ATOM     29  O   ASN A   3       5.441  -2.711  21.456  0.00  0.00    -0.274 OA
BRANCH  27  30
ATOM     30  CA  ASN A   4       6.077  -0.406  19.976  0.00  0.00    +0.145 C 
BRANCH  30  31
ATOM     31  C   ASN A   4       6.185  -0.949  18.558  0.00  0.00    +0.245 C 
ATOM     32  O   ASN A   4       5.847  -0.311  17.562  0.00  0.00    -0.299 OA
ENDBRANCH  30  31
BRANCH  30  33
ATOM     33  CB  ASN A   4       6.404   1.081  19.949  0.00  0.00    +0.125 C 
BRANCH  33  34
ATOM     34  CG  ASN A   4       6.620   1.739  21.293  0.00  0.00    +0.213 C 
ATOM     35  ND2 ASN A   4       6.040   2.954  21.497  0.00  0.00    -0.329 N 
ATOM     36 HD21 ASN A   4       5.075   3.082  21.196  0.00  0.00    +0.145 HD
ATOM     37 HD22 ASN A   4       6.197   3.329  22.428  0.00  0.00    +0.145 HD
ATOM     38  OD1 ASN A   4       7.360   1.255  22.144  0.00  0.00    -0.276 OA
ENDBRANCH  33  34
ENDBRANCH  30  33
ENDBRANCH  27  30
ENDBRANCH  25  26
BRANCH  25  39
ATOM     39  CB  ASN A   3       7.213  -4.384  22.717  0.00  0.00    +0.127 C 
BRANCH  39  40
ATOM     40  CG  ASN A   3       6.626  -4.516  24.104  0.00  0.00    +0.213 C 
ATOM     41  OD1 ASN A   3       7.327  -4.775  25.079  0.00  0.00    -0.276 OA
ATOM     42  ND2 ASN A   3       5.311  -4.214  24.280  0.00  0.00    -0.329 N 
ATOM     43 HD21 ASN A   3       4.989  -4.366  25.229  0.00  0.00    +0.145 HD
ATOM     44 HD22 ASN A   3       4.635  -4.530  23.585  0.00  0.00    +0.145 HD
ENDBRANCH  39  40
ENDBRANCH  25  39
ENDBRANCH   3  25
TORSDOF 17
ENDMDL
MODEL 4
REMARK VINA RESULT:      -6.0      2.045      6.559
REMARK  Name = LQNN-mmff94.pdb
REMARK  19 active torsions:
REMARK  status: ('A' for Active; 'I' for Inactive)
REMARK    1  A    between atoms: _1  and  _2
REMARK    2  A    between atoms: _2  and  _3
REMARK    3  A    between atoms: _2  and  _5
REMARK    4  A    between atoms: _5  and  _6
REMARK    5  A    between atoms: _6  and  _7
REMARK    6  A    between atoms: _6  and  _8
REMARK    7  A    between atoms: _20  and  _21
REMARK    8  A    between atoms: _21  and  _22
REMARK    9  A    between atoms: _21  and  _24
REMARK   10  A    between atoms: _24  and  _25
REMARK   11  A    between atoms: _25  and  _26
REMARK   12  A    between atoms: _37  and  _38
REMARK   13  A    between atoms: _38  and  _39
REMARK   14  A    between atoms: _38  and  _41
REMARK   15  A    between atoms: _41  and  _42
REMARK   16  A    between atoms: _51  and  _52
REMARK   17  A    between atoms: _52  and  _53
REMARK   18  A    between atoms: _52  and  _55
REMARK   19  A    between atoms: _55  and  _56
REMARK                            x       y       z     vdW  Elec       q    Type
REMARK                         _______ _______ _______ _____ _____    ______ ____
ROOT
ATOM      1  C   GLN A   2       7.023  -1.303  21.218  0.00  0.00    +0.234 C 
ATOM      2  O   GLN A   2       6.095  -1.535  20.443  0.00  0.00    -0.274 OA
ATOM      3  N   ASN A   3       7.374  -2.171  22.222  0.00  0.00    -0.302 N 
ATOM      4  H   ASN A   3       8.120  -1.927  22.871  0.00  0.00    +0.150 HD
ENDROOT
BRANCH   1   5
ATOM      5  CA  GLN A   2       7.850  -0.007  21.159  0.00  0.00    +0.159 C 
BRANCH   5   8
ATOM      6  C   LEU A   1       6.404   1.859  21.919  0.00  0.00    +0.230 C 
ATOM      7  O   LEU A   1       5.996   2.080  20.780  0.00  0.00    -0.274 OA
ATOM      8  N   GLN A   2       7.323   0.875  22.195  0.00  0.00    -0.303 N 
ATOM      9  H   GLN A   2       7.676   0.753  23.140  0.00  0.00    +0.149 HD
BRANCH   6  10
ATOM     10  CA  LEU A   1       5.919   2.655  23.153  0.00  0.00    +0.138 C 
BRANCH  10  11
ATOM     11  N   LEU A   1       5.034   1.799  23.967  0.00  0.00    -0.320 NA
ATOM     12  H1  LEU A   1       4.070   1.962  23.667  0.00  0.00    +0.119 HD
ATOM     13  H2  LEU A   1       5.206   0.829  23.687  0.00  0.00    +0.119 HD
ENDBRANCH  10  11
BRANCH  10  14
ATOM     14  CB  LEU A   1       7.137   3.133  23.961  0.00  0.00    +0.031 C 
BRANCH  14  15
ATOM     15  CG  LEU A   1       8.160   3.982  23.180  0.00  0.00    -0.015 C 
ATOM     16  CD2 LEU A   1       7.517   5.306  22.757  0.00  0.00    +0.007 C 
ATOM     17  CD1 LEU A   1       9.426   4.258  23.992  0.00  0.00    +0.007 C 
ENDBRANCH  14  15
ENDBRANCH  10  14
ENDBRANCH   6  10
ENDBRANCH   5   8
BRANCH   5  18
ATOM     18  CB  GLN A   2       9.344  -0.290  21.382  0.00  0.00    +0.041 C 
BRANCH  18  19
ATOM     19  CG  GLN A   2       9.941   0.510  22.541  0.00  0.00    +0.098 C 
BRANCH  19  20
ATOM     20  CD  GLN A   2      10.281  -0.329  23.752  0.00  0.00    +0.211 C 
ATOM     21  OE1 GLN A   2      10.109  -1.542  23.779  0.00  0.00    -0.276 OA
ATOM     22  NE2 GLN A   2      10.729   0.339  24.849  0.00  0.00    -0.329 N 
ATOM     23 HE21 GLN A   2      10.648   1.341  24.952  0.00  0.00    +0.145 HD
ATOM     24 HE22 GLN A   2      10.872  -0.209  25.688  0.00  0.00    +0.145 HD
ENDBRANCH  19  20
ENDBRANCH  18  19
ENDBRANCH   5  18
ENDBRANCH   1   5
BRANCH   3  25
ATOM     25  CA  ASN A   3       6.595  -3.364  22.550  0.00  0.00    +0.168 C 
BRANCH  25  26
ATOM     26  C   ASN A   3       6.677  -3.508  24.080  0.00  0.00    +0.234 C 
ATOM     27  N   ASN A   4       7.547  -2.656  24.711  0.00  0.00    -0.304 N 
ATOM     28  H   ASN A   4       8.025  -1.920  24.192  0.00  0.00    +0.149 HD
ATOM     29  O   ASN A   3       5.997  -4.327  24.702  0.00  0.00    -0.274 OA
BRANCH  27  30
ATOM     30  CA  ASN A   4       7.733  -2.662  26.159  0.00  0.00    +0.145 C 
BRANCH  30  31
ATOM     31  C   ASN A   4       7.934  -1.215  26.587  0.00  0.00    +0.245 C 
ATOM     32  O   ASN A   4       8.969  -0.801  27.107  0.00  0.00    -0.299 OA
ENDBRANCH  30  31
BRANCH  30  33
ATOM     33  CB  ASN A   4       8.946  -3.469  26.602  0.00  0.00    +0.125 C 
BRANCH  33  34
ATOM     34  CG  ASN A   4       9.163  -4.787  25.894  0.00  0.00    +0.213 C 
ATOM     35  ND2 ASN A   4       8.463  -5.864  26.345  0.00  0.00    -0.329 N 
ATOM     36 HD21 ASN A   4       7.475  -5.740  26.557  0.00  0.00    +0.145 HD
ATOM     37 HD22 ASN A   4       8.630  -6.712  25.810  0.00  0.00    +0.145 HD
ATOM     38  OD1 ASN A   4      10.001  -4.919  25.006  0.00  0.00    -0.276 OA
ENDBRANCH  33  34
ENDBRANCH  30  33
ENDBRANCH  27  30
ENDBRANCH  25  26
BRANCH  25  39
ATOM     39  CB  ASN A   3       7.139  -4.628  21.898  0.00  0.00    +0.127 C 
BRANCH  39  40
ATOM     40  CG  ASN A   3       6.123  -5.590  21.327  0.00  0.00    +0.213 C 
ATOM     41  OD1 ASN A   3       5.956  -5.709  20.116  0.00  0.00    -0.276 OA
ATOM     42  ND2 ASN A   3       5.473  -6.425  22.182  0.00  0.00    -0.329 N 
ATOM     43 HD21 ASN A   3       4.782  -7.008  21.724  0.00  0.00    +0.145 HD
ATOM     44 HD22 ASN A   3       5.142  -6.059  23.074  0.00  0.00    +0.145 HD
ENDBRANCH  39  40
ENDBRANCH  25  39
ENDBRANCH   3  25
TORSDOF 17
ENDMDL
MODEL 5
REMARK VINA RESULT:      -6.0      1.485      2.624
REMARK  Name = LQNN-mmff94.pdb
REMARK  19 active torsions:
REMARK  status: ('A' for Active; 'I' for Inactive)
REMARK    1  A    between atoms: _1  and  _2
REMARK    2  A    between atoms: _2  and  _3
REMARK    3  A    between atoms: _2  and  _5
REMARK    4  A    between atoms: _5  and  _6
REMARK    5  A    between atoms: _6  and  _7
REMARK    6  A    between atoms: _6  and  _8
REMARK    7  A    between atoms: _20  and  _21
REMARK    8  A    between atoms: _21  and  _22
REMARK    9  A    between atoms: _21  and  _24
REMARK   10  A    between atoms: _24  and  _25
REMARK   11  A    between atoms: _25  and  _26
REMARK   12  A    between atoms: _37  and  _38
REMARK   13  A    between atoms: _38  and  _39
REMARK   14  A    between atoms: _38  and  _41
REMARK   15  A    between atoms: _41  and  _42
REMARK   16  A    between atoms: _51  and  _52
REMARK   17  A    between atoms: _52  and  _53
REMARK   18  A    between atoms: _52  and  _55
REMARK   19  A    between atoms: _55  and  _56
REMARK                            x       y       z     vdW  Elec       q    Type
REMARK                         _______ _______ _______ _____ _____    ______ ____
ROOT
ATOM      1  C   GLN A   2       8.064  -1.948  22.082  0.00  0.00    +0.234 C 
ATOM      2  O   GLN A   2       9.272  -1.911  22.321  0.00  0.00    -0.274 OA
ATOM      3  N   ASN A   3       7.481  -1.149  21.132  0.00  0.00    -0.302 N 
ATOM      4  H   ASN A   3       6.472  -1.176  20.990  0.00  0.00    +0.150 HD
ENDROOT
BRANCH   1   5
ATOM      5  CA  GLN A   2       7.094  -2.862  22.850  0.00  0.00    +0.159 C 
BRANCH   5   8
ATOM      6  C   LEU A   1       7.805  -4.860  24.135  0.00  0.00    +0.230 C 
ATOM      7  O   LEU A   1       7.066  -5.604  23.494  0.00  0.00    -0.274 OA
ATOM      8  N   GLN A   2       7.870  -3.506  23.905  0.00  0.00    -0.303 N 
ATOM      9  H   GLN A   2       8.453  -2.913  24.488  0.00  0.00    +0.149 HD
BRANCH   6  10
ATOM     10  CA  LEU A   1       8.741  -5.369  25.257  0.00  0.00    +0.138 C 
BRANCH  10  11
ATOM     11  N   LEU A   1      10.128  -4.965  24.954  0.00  0.00    -0.320 NA
ATOM     12  H1  LEU A   1      10.563  -4.648  25.822  0.00  0.00    +0.119 HD
ATOM     13  H2  LEU A   1      10.651  -5.815  24.725  0.00  0.00    +0.119 HD
ENDBRANCH  10  11
BRANCH  10  14
ATOM     14  CB  LEU A   1       8.273  -4.802  26.607  0.00  0.00    +0.031 C 
BRANCH  14  15
ATOM     15  CG  LEU A   1       6.820  -5.140  27.001  0.00  0.00    -0.015 C 
ATOM     16  CD2 LEU A   1       6.820  -6.110  28.186  0.00  0.00    +0.007 C 
ATOM     17  CD1 LEU A   1       6.009  -3.893  27.353  0.00  0.00    +0.007 C 
ENDBRANCH  14  15
ENDBRANCH  10  14
ENDBRANCH   6  10
ENDBRANCH   5   8
BRANCH   5  18
ATOM     18  CB  GLN A   2       5.922  -2.060  23.438  0.00  0.00    +0.041 C 
BRANCH  18  19
ATOM     19  CG  GLN A   2       6.202  -1.530  24.844  0.00  0.00    +0.098 C 
BRANCH  19  20
ATOM     20  CD  GLN A   2       6.244  -0.021  24.931  0.00  0.00    +0.211 C 
ATOM     21  OE1 GLN A   2       6.578   0.569  25.952  0.00  0.00    -0.276 OA
ATOM     22  NE2 GLN A   2       5.823   0.664  23.833  0.00  0.00    -0.329 N 
ATOM     23 HE21 GLN A   2       5.312   0.229  23.078  0.00  0.00    +0.145 HD
ATOM     24 HE22 GLN A   2       5.765   1.671  23.920  0.00  0.00    +0.145 HD
ENDBRANCH  19  20
ENDBRANCH  18  19
ENDBRANCH   5  18
ENDBRANCH   1   5
BRANCH   3  25
ATOM     25  CA  ASN A   3       8.204  -0.091  20.428  0.00  0.00    +0.168 C 
BRANCH  25  26
ATOM     26  C   ASN A   3       8.176   1.129  21.364  0.00  0.00    +0.234 C 
ATOM     27  N   ASN A   4       9.301   1.319  22.126  0.00  0.00    -0.304 N 
ATOM     28  H   ASN A   4      10.125   0.734  21.994  0.00  0.00    +0.149 HD
ATOM     29  O   ASN A   3       7.212   1.896  21.419  0.00  0.00    -0.274 OA
BRANCH  27  30
ATOM     30  CA  ASN A   4       9.433   2.435  23.057  0.00  0.00    +0.145 C 
BRANCH  30  31
ATOM     31  C   ASN A   4      10.769   3.104  22.764  0.00  0.00    +0.245 C 
ATOM     32  O   ASN A   4      11.252   3.988  23.470  0.00  0.00    -0.299 OA
ENDBRANCH  30  31
BRANCH  30  33
ATOM     33  CB  ASN A   4       9.422   2.000  24.517  0.00  0.00    +0.125 C 
BRANCH  33  34
ATOM     34  CG  ASN A   4      10.070   0.669  24.819  0.00  0.00    +0.213 C 
ATOM     35  ND2 ASN A   4       9.602  -0.028  25.892  0.00  0.00    -0.329 N 
ATOM     36 HD21 ASN A   4       8.594  -0.094  26.019  0.00  0.00    +0.145 HD
ATOM     37 HD22 ASN A   4      10.058  -0.927  26.024  0.00  0.00    +0.145 HD
ATOM     38  OD1 ASN A   4      11.041   0.259  24.189  0.00  0.00    -0.276 OA
ENDBRANCH  33  34
ENDBRANCH  30  33
ENDBRANCH  27  30
ENDBRANCH  25  26
BRANCH  25  39
ATOM     39  CB  ASN A   3       7.565   0.282  19.097  0.00  0.00    +0.127 C 
BRANCH  39  40
ATOM     40  CG  ASN A   3       6.137  -0.162  18.881  0.00  0.00    +0.213 C 
ATOM     41  OD1 ASN A   3       5.868  -1.260  18.399  0.00  0.00    -0.276 OA
ATOM     42  ND2 ASN A   3       5.135   0.631  19.350  0.00  0.00    -0.329 N 
ATOM     43 HD21 ASN A   3       4.210   0.280  19.129  0.00  0.00    +0.145 HD
ATOM     44 HD22 ASN A   3       5.207   1.641  19.228  0.00  0.00    +0.145 HD
ENDBRANCH  39  40
ENDBRANCH  25  39
ENDBRANCH   3  25
TORSDOF 17
ENDMDL
MODEL 6
REMARK VINA RESULT:      -6.0      1.997      7.592
REMARK  Name = LQNN-mmff94.pdb
REMARK  19 active torsions:
REMARK  status: ('A' for Active; 'I' for Inactive)
REMARK    1  A    between atoms: _1  and  _2
REMARK    2  A    between atoms: _2  and  _3
REMARK    3  A    between atoms: _2  and  _5
REMARK    4  A    between atoms: _5  and  _6
REMARK    5  A    between atoms: _6  and  _7
REMARK    6  A    between atoms: _6  and  _8
REMARK    7  A    between atoms: _20  and  _21
REMARK    8  A    between atoms: _21  and  _22
REMARK    9  A    between atoms: _21  and  _24
REMARK   10  A    between atoms: _24  and  _25
REMARK   11  A    between atoms: _25  and  _26
REMARK   12  A    between atoms: _37  and  _38
REMARK   13  A    between atoms: _38  and  _39
REMARK   14  A    between atoms: _38  and  _41
REMARK   15  A    between atoms: _41  and  _42
REMARK   16  A    between atoms: _51  and  _52
REMARK   17  A    between atoms: _52  and  _53
REMARK   18  A    between atoms: _52  and  _55
REMARK   19  A    between atoms: _55  and  _56
REMARK                            x       y       z     vdW  Elec       q    Type
REMARK                         _______ _______ _______ _____ _____    ______ ____
ROOT
ATOM      1  C   GLN A   2       8.054  -1.471  21.907  0.00  0.00    +0.234 C 
ATOM      2  O   GLN A   2       9.285  -1.513  21.935  0.00  0.00    -0.274 OA
ATOM      3  N   ASN A   3       7.275  -2.453  22.464  0.00  0.00    -0.302 N 
ATOM      4  H   ASN A   3       6.260  -2.407  22.386  0.00  0.00    +0.150 HD
ENDROOT
BRANCH   1   5
ATOM      5  CA  GLN A   2       7.278  -0.337  21.215  0.00  0.00    +0.159 C 
BRANCH   5   8
ATOM      6  C   LEU A   1       7.168   2.071  21.798  0.00  0.00    +0.230 C 
ATOM      7  O   LEU A   1       5.964   2.130  21.558  0.00  0.00    -0.274 OA
ATOM      8  N   GLN A   2       7.895   0.915  21.640  0.00  0.00    -0.303 N 
ATOM      9  H   GLN A   2       8.899   0.914  21.798  0.00  0.00    +0.149 HD
BRANCH   6  10
ATOM     10  CA  LEU A   1       7.983   3.282  22.309  0.00  0.00    +0.138 C 
BRANCH  10  11
ATOM     11  N   LEU A   1       7.327   4.529  21.872  0.00  0.00    -0.320 NA
ATOM     12  H1  LEU A   1       6.332   4.460  22.095  0.00  0.00    +0.119 HD
ATOM     13  H2  LEU A   1       7.655   5.279  22.489  0.00  0.00    +0.119 HD
ENDBRANCH  10  11
BRANCH  10  14
ATOM     14  CB  LEU A   1       8.092   3.210  23.841  0.00  0.00    +0.031 C 
BRANCH  14  15
ATOM     15  CG  LEU A   1       9.450   2.725  24.389  0.00  0.00    -0.015 C 
ATOM     16  CD2 LEU A   1       9.344   1.255  24.803  0.00  0.00    +0.007 C 
ATOM     17  CD1 LEU A   1      10.581   2.896  23.374  0.00  0.00    +0.007 C 
ENDBRANCH  14  15
ENDBRANCH  10  14
ENDBRANCH   6  10
ENDBRANCH   5   8
BRANCH   5  18
ATOM     18  CB  GLN A   2       7.324  -0.485  19.686  0.00  0.00    +0.041 C 
BRANCH  18  19
ATOM     19  CG  GLN A   2       5.946  -0.394  19.031  0.00  0.00    +0.098 C 
BRANCH  19  20
ATOM     20  CD  GLN A   2       5.700   0.909  18.304  0.00  0.00    +0.211 C 
ATOM     21  OE1 GLN A   2       6.355   1.249  17.326  0.00  0.00    -0.276 OA
ATOM     22  NE2 GLN A   2       4.751   1.731  18.831  0.00  0.00    -0.329 N 
ATOM     23 HE21 GLN A   2       4.372   1.606  19.759  0.00  0.00    +0.145 HD
ATOM     24 HE22 GLN A   2       4.647   2.641  18.399  0.00  0.00    +0.145 HD
ENDBRANCH  19  20
ENDBRANCH  18  19
ENDBRANCH   5  18
ENDBRANCH   1   5
BRANCH   3  25
ATOM     25  CA  ASN A   3       7.825  -3.695  23.005  0.00  0.00    +0.168 C 
BRANCH  25  26
ATOM     26  C   ASN A   3       6.796  -4.789  22.670  0.00  0.00    +0.234 C 
ATOM     27  N   ASN A   4       5.701  -4.845  23.495  0.00  0.00    -0.304 N 
ATOM     28  H   ASN A   4       5.553  -4.140  24.216  0.00  0.00    +0.149 HD
ATOM     29  O   ASN A   3       6.936  -5.557  21.717  0.00  0.00    -0.274 OA
BRANCH  27  30
ATOM     30  CA  ASN A   4       4.632  -5.821  23.306  0.00  0.00    +0.145 C 
BRANCH  30  31
ATOM     31  C   ASN A   4       3.315  -5.065  23.414  0.00  0.00    +0.245 C 
ATOM     32  O   ASN A   4       2.282  -5.423  22.850  0.00  0.00    -0.299 OA
ENDBRANCH  30  31
BRANCH  30  33
ATOM     33  CB  ASN A   4       4.640  -6.927  24.353  0.00  0.00    +0.125 C 
BRANCH  33  34
ATOM     34  CG  ASN A   4       4.953  -6.501  25.769  0.00  0.00    +0.213 C 
ATOM     35  ND2 ASN A   4       3.905  -6.357  26.627  0.00  0.00    -0.329 N 
ATOM     36 HD21 ASN A   4       3.185  -7.077  26.631  0.00  0.00    +0.145 HD
ATOM     37 HD22 ASN A   4       4.183  -6.098  27.570  0.00  0.00    +0.145 HD
ATOM     38  OD1 ASN A   4       6.090  -6.202  26.123  0.00  0.00    -0.276 OA
ENDBRANCH  33  34
ENDBRANCH  30  33
ENDBRANCH  27  30
ENDBRANCH  25  26
BRANCH  25  39
ATOM     39  CB  ASN A   3       8.033  -3.646  24.513  0.00  0.00    +0.127 C 
BRANCH  39  40
ATOM     40  CG  ASN A   3       9.082  -4.572  25.084  0.00  0.00    +0.213 C 
ATOM     41  OD1 ASN A   3      10.230  -4.596  24.647  0.00  0.00    -0.276 OA
ATOM     42  ND2 ASN A   3       8.767  -5.302  26.189  0.00  0.00    -0.329 N 
ATOM     43 HD21 ASN A   3       9.511  -5.924  26.483  0.00  0.00    +0.145 HD
ATOM     44 HD22 ASN A   3       7.848  -5.740  26.246  0.00  0.00    +0.145 HD
ENDBRANCH  39  40
ENDBRANCH  25  39
ENDBRANCH   3  25
TORSDOF 17
ENDMDL
MODEL 7
REMARK VINA RESULT:      -6.0      2.293      7.299
REMARK  Name = LQNN-mmff94.pdb
REMARK  19 active torsions:
REMARK  status: ('A' for Active; 'I' for Inactive)
REMARK    1  A    between atoms: _1  and  _2
REMARK    2  A    between atoms: _2  and  _3
REMARK    3  A    between atoms: _2  and  _5
REMARK    4  A    between atoms: _5  and  _6
REMARK    5  A    between atoms: _6  and  _7
REMARK    6  A    between atoms: _6  and  _8
REMARK    7  A    between atoms: _20  and  _21
REMARK    8  A    between atoms: _21  and  _22
REMARK    9  A    between atoms: _21  and  _24
REMARK   10  A    between atoms: _24  and  _25
REMARK   11  A    between atoms: _25  and  _26
REMARK   12  A    between atoms: _37  and  _38
REMARK   13  A    between atoms: _38  and  _39
REMARK   14  A    between atoms: _38  and  _41
REMARK   15  A    between atoms: _41  and  _42
REMARK   16  A    between atoms: _51  and  _52
REMARK   17  A    between atoms: _52  and  _53
REMARK   18  A    between atoms: _52  and  _55
REMARK   19  A    between atoms: _55  and  _56
REMARK                            x       y       z     vdW  Elec       q    Type
REMARK                         _______ _______ _______ _____ _____    ______ ____
ROOT
ATOM      1  C   GLN A   2       6.345  -2.604  22.318  0.00  0.00    +0.234 C 
ATOM      2  O   GLN A   2       5.489  -2.731  23.196  0.00  0.00    -0.274 OA
ATOM      3  N   ASN A   3       7.301  -3.559  22.085  0.00  0.00    -0.302 N 
ATOM      4  H   ASN A   3       8.019  -3.402  21.379  0.00  0.00    +0.150 HD
ENDROOT
BRANCH   1   5
ATOM      5  CA  GLN A   2       6.444  -1.352  21.431  0.00  0.00    +0.159 C 
BRANCH   5   8
ATOM      6  C   LEU A   1       8.227   0.366  21.565  0.00  0.00    +0.230 C 
ATOM      7  O   LEU A   1       7.413   1.283  21.661  0.00  0.00    -0.274 OA
ATOM      8  N   GLN A   2       7.845  -0.947  21.429  0.00  0.00    -0.303 N 
ATOM      9  H   GLN A   2       8.544  -1.674  21.301  0.00  0.00    +0.149 HD
BRANCH   6  10
ATOM     10  CA  LEU A   1       9.756   0.595  21.598  0.00  0.00    +0.138 C 
BRANCH  10  11
ATOM     11  N   LEU A   1      10.029   2.030  21.804  0.00  0.00    -0.320 NA
ATOM     12  H1  LEU A   1       9.856   2.249  22.786  0.00  0.00    +0.119 HD
ATOM     13  H2  LEU A   1      11.040   2.166  21.707  0.00  0.00    +0.119 HD
ENDBRANCH  10  11
BRANCH  10  14
ATOM     14  CB  LEU A   1      10.374  -0.261  22.717  0.00  0.00    +0.031 C 
BRANCH  14  15
ATOM     15  CG  LEU A   1       9.942   0.108  24.151  0.00  0.00    -0.015 C 
ATOM     16  CD2 LEU A   1       9.347  -1.122  24.843  0.00  0.00    +0.007 C 
ATOM     17  CD1 LEU A   1      11.100   0.660  24.983  0.00  0.00    +0.007 C 
ENDBRANCH  14  15
ENDBRANCH  10  14
ENDBRANCH   6  10
ENDBRANCH   5   8
BRANCH   5  18
ATOM     18  CB  GLN A   2       5.951  -1.641  20.005  0.00  0.00    +0.041 C 
BRANCH  18  19
ATOM     19  CG  GLN A   2       5.381  -0.407  19.303  0.00  0.00    +0.098 C 
BRANCH  19  20
ATOM     20  CD  GLN A   2       6.359   0.271  18.370  0.00  0.00    +0.211 C 
ATOM     21  OE1 GLN A   2       7.548  -0.027  18.335  0.00  0.00    -0.276 OA
ATOM     22  NE2 GLN A   2       5.870   1.288  17.609  0.00  0.00    -0.329 N 
ATOM     23 HE21 GLN A   2       4.976   1.724  17.786  0.00  0.00    +0.145 HD
ATOM     24 HE22 GLN A   2       6.541   1.801  17.050  0.00  0.00    +0.145 HD
ENDBRANCH  19  20
ENDBRANCH  18  19
ENDBRANCH   5  18
ENDBRANCH   1   5
BRANCH   3  25
ATOM     25  CA  ASN A   3       7.482  -4.731  22.940  0.00  0.00    +0.168 C 
BRANCH  25  26
ATOM     26  C   ASN A   3       6.188  -5.553  22.803  0.00  0.00    +0.234 C 
ATOM     27  N   ASN A   4       5.474  -5.731  23.960  0.00  0.00    -0.304 N 
ATOM     28  H   ASN A   4       5.750  -5.262  24.821  0.00  0.00    +0.149 HD
ATOM     29  O   ASN A   3       5.810  -6.011  21.723  0.00  0.00    -0.274 OA
BRANCH  27  30
ATOM     30  CA  ASN A   4       4.221  -6.480  23.995  0.00  0.00    +0.145 C 
BRANCH  30  31
ATOM     31  C   ASN A   4       3.092  -5.463  23.907  0.00  0.00    +0.245 C 
ATOM     32  O   ASN A   4       2.535  -5.161  22.852  0.00  0.00    -0.299 OA
ENDBRANCH  30  31
BRANCH  30  33
ATOM     33  CB  ASN A   4       4.043  -7.288  25.274  0.00  0.00    +0.125 C 
BRANCH  33  34
ATOM     34  CG  ASN A   4       4.621  -6.679  26.531  0.00  0.00    +0.213 C 
ATOM     35  ND2 ASN A   4       3.750  -6.107  27.408  0.00  0.00    -0.329 N 
ATOM     36 HD21 ASN A   4       2.890  -6.606  27.626  0.00  0.00    +0.145 HD
ATOM     37 HD22 ASN A   4       4.196  -5.742  28.246  0.00  0.00    +0.145 HD
ATOM     38  OD1 ASN A   4       5.831  -6.612  26.726  0.00  0.00    -0.276 OA
ENDBRANCH  33  34
ENDBRANCH  30  33
ENDBRANCH  27  30
ENDBRANCH  25  26
BRANCH  25  39
ATOM     39  CB  ASN A   3       7.695  -4.371  24.405  0.00  0.00    +0.127 C 
BRANCH  39  40
ATOM     40  CG  ASN A   3       8.875  -5.013  25.097  0.00  0.00    +0.213 C 
ATOM     41  OD1 ASN A   3      10.032  -4.764  24.767  0.00  0.00    -0.276 OA
ATOM     42  ND2 ASN A   3       8.640  -5.787  26.191  0.00  0.00    -0.329 N 
ATOM     43 HD21 ASN A   3       9.479  -6.210  26.571  0.00  0.00    +0.145 HD
ATOM     44 HD22 ASN A   3       7.850  -6.433  26.179  0.00  0.00    +0.145 HD
ENDBRANCH  39  40
ENDBRANCH  25  39
ENDBRANCH   3  25
TORSDOF 17
ENDMDL
MODEL 8
REMARK VINA RESULT:      -5.9      2.013      7.408
REMARK  Name = LQNN-mmff94.pdb
REMARK  19 active torsions:
REMARK  status: ('A' for Active; 'I' for Inactive)
REMARK    1  A    between atoms: _1  and  _2
REMARK    2  A    between atoms: _2  and  _3
REMARK    3  A    between atoms: _2  and  _5
REMARK    4  A    between atoms: _5  and  _6
REMARK    5  A    between atoms: _6  and  _7
REMARK    6  A    between atoms: _6  and  _8
REMARK    7  A    between atoms: _20  and  _21
REMARK    8  A    between atoms: _21  and  _22
REMARK    9  A    between atoms: _21  and  _24
REMARK   10  A    between atoms: _24  and  _25
REMARK   11  A    between atoms: _25  and  _26
REMARK   12  A    between atoms: _37  and  _38
REMARK   13  A    between atoms: _38  and  _39
REMARK   14  A    between atoms: _38  and  _41
REMARK   15  A    between atoms: _41  and  _42
REMARK   16  A    between atoms: _51  and  _52
REMARK   17  A    between atoms: _52  and  _53
REMARK   18  A    between atoms: _52  and  _55
REMARK   19  A    between atoms: _55  and  _56
REMARK                            x       y       z     vdW  Elec       q    Type
REMARK                         _______ _______ _______ _____ _____    ______ ____
ROOT
ATOM      1  C   GLN A   2       8.509  -0.708  21.840  0.00  0.00    +0.234 C 
ATOM      2  O   GLN A   2       9.626  -1.011  21.416  0.00  0.00    -0.274 OA
ATOM      3  N   ASN A   3       7.986  -1.259  22.983  0.00  0.00    -0.302 N 
ATOM      4  H   ASN A   3       7.043  -1.017  23.282  0.00  0.00    +0.150 HD
ENDROOT
BRANCH   1   5
ATOM      5  CA  GLN A   2       7.586   0.283  21.113  0.00  0.00    +0.159 C 
BRANCH   5   8
ATOM      6  C   LEU A   1       7.053   2.613  21.775  0.00  0.00    +0.230 C 
ATOM      7  O   LEU A   1       5.849   2.449  21.588  0.00  0.00    -0.274 OA
ATOM      8  N   GLN A   2       7.976   1.620  21.550  0.00  0.00    -0.303 N 
ATOM      9  H   GLN A   2       8.968   1.805  21.665  0.00  0.00    +0.149 HD
BRANCH   6  10
ATOM     10  CA  LEU A   1       7.649   3.944  22.289  0.00  0.00    +0.138 C 
BRANCH  10  11
ATOM     11  N   LEU A   1       6.709   5.043  21.997  0.00  0.00    -0.320 NA
ATOM     12  H1  LEU A   1       6.456   5.488  22.881  0.00  0.00    +0.119 HD
ATOM     13  H2  LEU A   1       7.235   5.774  21.507  0.00  0.00    +0.119 HD
ENDBRANCH  10  11
BRANCH  10  14
ATOM     14  CB  LEU A   1       7.928   3.828  23.796  0.00  0.00    +0.031 C 
BRANCH  14  15
ATOM     15  CG  LEU A   1       9.361   4.189  24.237  0.00  0.00    -0.015 C 
ATOM     16  CD2 LEU A   1      10.362   3.249  23.559  0.00  0.00    +0.007 C 
ATOM     17  CD1 LEU A   1       9.718   5.641  23.920  0.00  0.00    +0.007 C 
ENDBRANCH  14  15
ENDBRANCH  10  14
ENDBRANCH   6  10
ENDBRANCH   5   8
BRANCH   5  18
ATOM     18  CB  GLN A   2       7.711   0.143  19.588  0.00  0.00    +0.041 C 
BRANCH  18  19
ATOM     19  CG  GLN A   2       6.375  -0.136  18.898  0.00  0.00    +0.098 C 
BRANCH  19  20
ATOM     20  CD  GLN A   2       5.792   1.066  18.188  0.00  0.00    +0.211 C 
ATOM     21  OE1 GLN A   2       6.259   1.500  17.141  0.00  0.00    -0.276 OA
ATOM     22  NE2 GLN A   2       4.754   1.693  18.805  0.00  0.00    -0.329 N 
ATOM     23 HE21 GLN A   2       4.507   1.525  19.770  0.00  0.00    +0.145 HD
ATOM     24 HE22 GLN A   2       4.421   2.549  18.378  0.00  0.00    +0.145 HD
ENDBRANCH  19  20
ENDBRANCH  18  19
ENDBRANCH   5  18
ENDBRANCH   1   5
BRANCH   3  25
ATOM     25  CA  ASN A   3       8.634  -2.349  23.710  0.00  0.00    +0.168 C 
BRANCH  25  26
ATOM     26  C   ASN A   3       7.750  -3.588  23.483  0.00  0.00    +0.234 C 
ATOM     27  N   ASN A   4       6.928  -3.930  24.527  0.00  0.00    -0.304 N 
ATOM     28  H   ASN A   4       6.855  -3.334  25.350  0.00  0.00    +0.149 HD
ATOM     29  O   ASN A   3       7.767  -4.225  22.428  0.00  0.00    -0.274 OA
BRANCH  27  30
ATOM     30  CA  ASN A   4       6.024  -5.074  24.464  0.00  0.00    +0.145 C 
BRANCH  30  31
ATOM     31  C   ASN A   4       4.662  -4.542  24.038  0.00  0.00    +0.245 C 
ATOM     32  O   ASN A   4       4.333  -4.393  22.862  0.00  0.00    -0.299 OA
ENDBRANCH  30  31
BRANCH  30  33
ATOM     33  CB  ASN A   4       5.866  -5.785  25.802  0.00  0.00    +0.125 C 
BRANCH  33  34
ATOM     34  CG  ASN A   4       6.672  -5.226  26.951  0.00  0.00    +0.213 C 
ATOM     35  ND2 ASN A   4       7.471  -6.090  27.636  0.00  0.00    -0.329 N 
ATOM     36 HD21 ASN A   4       8.036  -6.748  27.102  0.00  0.00    +0.145 HD
ATOM     37 HD22 ASN A   4       8.009  -5.648  28.377  0.00  0.00    +0.145 HD
ATOM     38  OD1 ASN A   4       6.554  -4.062  27.325  0.00  0.00    -0.276 OA
ENDBRANCH  33  34
ENDBRANCH  30  33
ENDBRANCH  27  30
ENDBRANCH  25  26
BRANCH  25  39
ATOM     39  CB  ASN A   3       8.748  -2.082  25.205  0.00  0.00    +0.127 C 
BRANCH  39  40
ATOM     40  CG  ASN A   3       9.316  -0.742  25.615  0.00  0.00    +0.213 C 
ATOM     41  OD1 ASN A   3      10.065  -0.106  24.877  0.00  0.00    -0.276 OA
ATOM     42  ND2 ASN A   3       8.882  -0.185  26.777  0.00  0.00    -0.329 N 
ATOM     43 HD21 ASN A   3       9.341   0.692  26.997  0.00  0.00    +0.145 HD
ATOM     44 HD22 ASN A   3       8.767  -0.779  27.598  0.00  0.00    +0.145 HD
ENDBRANCH  39  40
ENDBRANCH  25  39
ENDBRANCH   3  25
TORSDOF 17
ENDMDL
MODEL 9
REMARK VINA RESULT:      -5.9      2.067      7.637
REMARK  Name = LQNN-mmff94.pdb
REMARK  19 active torsions:
REMARK  status: ('A' for Active; 'I' for Inactive)
REMARK    1  A    between atoms: _1  and  _2
REMARK    2  A    between atoms: _2  and  _3
REMARK    3  A    between atoms: _2  and  _5
REMARK    4  A    between atoms: _5  and  _6
REMARK    5  A    between atoms: _6  and  _7
REMARK    6  A    between atoms: _6  and  _8
REMARK    7  A    between atoms: _20  and  _21
REMARK    8  A    between atoms: _21  and  _22
REMARK    9  A    between atoms: _21  and  _24
REMARK   10  A    between atoms: _24  and  _25
REMARK   11  A    between atoms: _25  and  _26
REMARK   12  A    between atoms: _37  and  _38
REMARK   13  A    between atoms: _38  and  _39
REMARK   14  A    between atoms: _38  and  _41
REMARK   15  A    between atoms: _41  and  _42
REMARK   16  A    between atoms: _51  and  _52
REMARK   17  A    between atoms: _52  and  _53
REMARK   18  A    between atoms: _52  and  _55
REMARK   19  A    between atoms: _55  and  _56
REMARK                            x       y       z     vdW  Elec       q    Type
REMARK                         _______ _______ _______ _____ _____    ______ ____
ROOT
ATOM      1  C   GLN A   2       8.145  -1.834  22.340  0.00  0.00    +0.234 C 
ATOM      2  O   GLN A   2       9.224  -2.104  21.811  0.00  0.00    -0.274 OA
ATOM      3  N   ASN A   3       7.647  -2.553  23.397  0.00  0.00    -0.302 N 
ATOM      4  H   ASN A   3       6.731  -2.329  23.782  0.00  0.00    +0.150 HD
ENDROOT
BRANCH   1   5
ATOM      5  CA  GLN A   2       7.239  -0.695  21.843  0.00  0.00    +0.159 C 
BRANCH   5   8
ATOM      6  C   LEU A   1       8.319   1.153  23.096  0.00  0.00    +0.230 C 
ATOM      7  O   LEU A   1       7.899   0.740  24.175  0.00  0.00    -0.274 OA
ATOM      8  N   GLN A   2       8.031   0.529  21.906  0.00  0.00    -0.303 N 
ATOM      9  H   GLN A   2       8.352   0.926  21.027  0.00  0.00    +0.149 HD
BRANCH   6  10
ATOM     10  CA  LEU A   1       9.218   2.405  22.968  0.00  0.00    +0.138 C 
BRANCH  10  11
ATOM     11  N   LEU A   1      10.078   2.267  21.777  0.00  0.00    -0.320 NA
ATOM     12  H1  LEU A   1      10.969   1.864  22.072  0.00  0.00    +0.119 HD
ATOM     13  H2  LEU A   1       9.670   1.533  21.190  0.00  0.00    +0.119 HD
ENDBRANCH  10  11
BRANCH  10  14
ATOM     14  CB  LEU A   1       8.334   3.659  22.882  0.00  0.00    +0.031 C 
BRANCH  14  15
ATOM     15  CG  LEU A   1       8.587   4.726  23.967  0.00  0.00    -0.015 C 
ATOM     16  CD2 LEU A   1       8.284   4.139  25.349  0.00  0.00    +0.007 C 
ATOM     17  CD1 LEU A   1      10.019   5.261  23.934  0.00  0.00    +0.007 C 
ENDBRANCH  14  15
ENDBRANCH  10  14
ENDBRANCH   6  10
ENDBRANCH   5   8
BRANCH   5  18
ATOM     18  CB  GLN A   2       6.746  -0.960  20.412  0.00  0.00    +0.041 C 
BRANCH  18  19
ATOM     19  CG  GLN A   2       6.921   0.241  19.483  0.00  0.00    +0.098 C 
BRANCH  19  20
ATOM     20  CD  GLN A   2       5.892   0.313  18.376  0.00  0.00    +0.211 C 
ATOM     21  OE1 GLN A   2       5.837  -0.518  17.476  0.00  0.00    -0.276 OA
ATOM     22  NE2 GLN A   2       5.063   1.392  18.386  0.00  0.00    -0.329 N 
ATOM     23 HE21 GLN A   2       5.235   2.211  18.951  0.00  0.00    +0.145 HD
ATOM     24 HE22 GLN A   2       4.434   1.488  17.597  0.00  0.00    +0.145 HD
ENDBRANCH  19  20
ENDBRANCH  18  19
ENDBRANCH   5  18
ENDBRANCH   1   5
BRANCH   3  25
ATOM     25  CA  ASN A   3       8.273  -3.779  23.891  0.00  0.00    +0.168 C 
BRANCH  25  26
ATOM     26  C   ASN A   3       7.393  -4.933  23.379  0.00  0.00    +0.234 C 
ATOM     27  N   ASN A   4       6.235  -5.152  24.080  0.00  0.00    -0.304 N 
ATOM     28  H   ASN A   4       5.949  -4.520  24.827  0.00  0.00    +0.149 HD
ATOM     29  O   ASN A   3       7.701  -5.611  22.396  0.00  0.00    -0.274 OA
BRANCH  27  30
ATOM     30  CA  ASN A   4       5.290  -6.204  23.716  0.00  0.00    +0.145 C 
BRANCH  30  31
ATOM     31  C   ASN A   4       4.275  -5.582  22.768  0.00  0.00    +0.245 C 
ATOM     32  O   ASN A   4       3.472  -4.715  23.111  0.00  0.00    -0.299 OA
ENDBRANCH  30  31
BRANCH  30  33
ATOM     33  CB  ASN A   4       4.543  -6.777  24.913  0.00  0.00    +0.125 C 
BRANCH  33  34
ATOM     34  CG  ASN A   4       4.827  -6.127  26.248  0.00  0.00    +0.213 C 
ATOM     35  ND2 ASN A   4       5.351  -6.913  27.230  0.00  0.00    -0.329 N 
ATOM     36 HD21 ASN A   4       6.106  -7.550  26.983  0.00  0.00    +0.145 HD
ATOM     37 HD22 ASN A   4       5.547  -6.412  28.092  0.00  0.00    +0.145 HD
ATOM     38  OD1 ASN A   4       4.520  -4.963  26.485  0.00  0.00    -0.276 OA
ENDBRANCH  33  34
ENDBRANCH  30  33
ENDBRANCH  27  30
ENDBRANCH  25  26
BRANCH  25  39
ATOM     39  CB  ASN A   3       8.344  -3.839  25.411  0.00  0.00    +0.127 C 
BRANCH  39  40
ATOM     40  CG  ASN A   3       8.868  -5.121  26.017  0.00  0.00    +0.213 C 
ATOM     41  OD1 ASN A   3       8.141  -5.876  26.658  0.00  0.00    -0.276 OA
ATOM     42  ND2 ASN A   3      10.145  -5.496  25.732  0.00  0.00    -0.329 N 
ATOM     43 HD21 ASN A   3      10.429  -6.344  26.209  0.00  0.00    +0.145 HD
ATOM     44 HD22 ASN A   3      10.879  -4.787  25.730  0.00  0.00    +0.145 HD
ENDBRANCH  39  40
ENDBRANCH  25  39
ENDBRANCH   3  25
TORSDOF 17
ENDMDL
MODEL 10
REMARK VINA RESULT:      -5.9      1.646      6.376
REMARK  Name = LQNN-mmff94.pdb
REMARK  19 active torsions:
REMARK  status: ('A' for Active; 'I' for Inactive)
REMARK    1  A    between atoms: _1  and  _2
REMARK    2  A    between atoms: _2  and  _3
REMARK    3  A    between atoms: _2  and  _5
REMARK    4  A    between atoms: _5  and  _6
REMARK    5  A    between atoms: _6  and  _7
REMARK    6  A    between atoms: _6  and  _8
REMARK    7  A    between atoms: _20  and  _21
REMARK    8  A    between atoms: _21  and  _22
REMARK    9  A    between atoms: _21  and  _24
REMARK   10  A    between atoms: _24  and  _25
REMARK   11  A    between atoms: _25  and  _26
REMARK   12  A    between atoms: _37  and  _38
REMARK   13  A    between atoms: _38  and  _39
REMARK   14  A    between atoms: _38  and  _41
REMARK   15  A    between atoms: _41  and  _42
REMARK   16  A    between atoms: _51  and  _52
REMARK   17  A    between atoms: _52  and  _53
REMARK   18  A    between atoms: _52  and  _55
REMARK   19  A    between atoms: _55  and  _56
REMARK                            x       y       z     vdW  Elec       q    Type
REMARK                         _______ _______ _______ _____ _____    ______ ____
ROOT
ATOM      1  C   GLN A   2       7.190  -1.365  22.165  0.00  0.00    +0.234 C 
ATOM      2  O   GLN A   2       8.203  -2.046  22.338  0.00  0.00    -0.274 OA
ATOM      3  N   ASN A   3       5.927  -1.882  22.302  0.00  0.00    -0.302 N 
ATOM      4  H   ASN A   3       5.113  -1.302  22.109  0.00  0.00    +0.150 HD
ENDROOT
BRANCH   1   5
ATOM      5  CA  GLN A   2       7.247   0.113  21.742  0.00  0.00    +0.159 C 
BRANCH   5   8
ATOM      6  C   LEU A   1       7.869   1.366  23.790  0.00  0.00    +0.230 C 
ATOM      7  O   LEU A   1       6.703   1.430  24.172  0.00  0.00    -0.274 OA
ATOM      8  N   GLN A   2       8.226   0.760  22.609  0.00  0.00    -0.303 N 
ATOM      9  H   GLN A   2       9.194   0.770  22.299  0.00  0.00    +0.149 HD
BRANCH   6  10
ATOM     10  CA  LEU A   1       9.051   1.947  24.601  0.00  0.00    +0.138 C 
BRANCH  10  11
ATOM     11  N   LEU A   1       9.919   0.844  25.055  0.00  0.00    -0.320 NA
ATOM     12  H1  LEU A   1      10.024   0.183  24.282  0.00  0.00    +0.119 HD
ATOM     13  H2  LEU A   1      10.864   1.224  25.168  0.00  0.00    +0.119 HD
ENDBRANCH  10  11
BRANCH  10  14
ATOM     14  CB  LEU A   1       9.825   2.947  23.726  0.00  0.00    +0.031 C 
BRANCH  14  15
ATOM     15  CG  LEU A   1       9.380   4.419  23.848  0.00  0.00    -0.015 C 
ATOM     16  CD2 LEU A   1       8.599   4.617  25.150  0.00  0.00    +0.007 C 
ATOM     17  CD1 LEU A   1      10.562   5.389  23.801  0.00  0.00    +0.007 C 
ENDBRANCH  14  15
ENDBRANCH  10  14
ENDBRANCH   6  10
ENDBRANCH   5   8
BRANCH   5  18
ATOM     18  CB  GLN A   2       7.640   0.254  20.264  0.00  0.00    +0.041 C 
BRANCH  18  19
ATOM     19  CG  GLN A   2       6.499   0.770  19.385  0.00  0.00    +0.098 C 
BRANCH  19  20
ATOM     20  CD  GLN A   2       5.977  -0.251  18.400  0.00  0.00    +0.211 C 
ATOM     21  OE1 GLN A   2       5.824   0.003  17.210  0.00  0.00    -0.276 OA
ATOM     22  NE2 GLN A   2       5.614  -1.459  18.910  0.00  0.00    -0.329 N 
ATOM     23 HE21 GLN A   2       5.489  -1.622  19.899  0.00  0.00    +0.145 HD
ATOM     24 HE22 GLN A   2       5.181  -2.112  18.268  0.00  0.00    +0.145 HD
ENDBRANCH  19  20
ENDBRANCH  18  19
ENDBRANCH   5  18
ENDBRANCH   1   5
BRANCH   3  25
ATOM     25  CA  ASN A   3       5.669  -3.305  22.520  0.00  0.00    +0.168 C 
BRANCH  25  26
ATOM     26  C   ASN A   3       5.750  -3.517  24.042  0.00  0.00    +0.234 C 
ATOM     27  N   ASN A   4       7.014  -3.657  24.555  0.00  0.00    -0.304 N 
ATOM     28  H   ASN A   4       7.834  -3.531  23.963  0.00  0.00    +0.149 HD
ATOM     29  O   ASN A   3       4.747  -3.546  24.758  0.00  0.00    -0.274 OA
BRANCH  27  30
ATOM     30  CA  ASN A   4       7.260  -3.857  25.980  0.00  0.00    +0.145 C 
BRANCH  30  31
ATOM     31  C   ASN A   4       8.062  -2.658  26.465  0.00  0.00    +0.245 C 
ATOM     32  O   ASN A   4       8.531  -1.808  25.710  0.00  0.00    -0.299 OA
ENDBRANCH  30  31
BRANCH  30  33
ATOM     33  CB  ASN A   4       8.055  -5.122  26.278  0.00  0.00    +0.125 C 
BRANCH  33  34
ATOM     34  CG  ASN A   4       9.155  -5.462  25.298  0.00  0.00    +0.213 C 
ATOM     35  ND2 ASN A   4      10.435  -5.452  25.764  0.00  0.00    -0.329 N 
ATOM     36 HD21 ASN A   4      10.621  -5.890  26.665  0.00  0.00    +0.145 HD
ATOM     37 HD22 ASN A   4      11.125  -5.717  25.066  0.00  0.00    +0.145 HD
ATOM     38  OD1 ASN A   4       8.931  -5.651  24.106  0.00  0.00    -0.276 OA
ENDBRANCH  33  34
ENDBRANCH  30  33
ENDBRANCH  27  30
ENDBRANCH  25  26
BRANCH  25  39
ATOM     39  CB  ASN A   3       6.686  -4.206  21.833  0.00  0.00    +0.127 C 
BRANCH  39  40
ATOM     40  CG  ASN A   3       6.165  -5.501  21.254  0.00  0.00    +0.213 C 
ATOM     41  OD1 ASN A   3       5.958  -5.633  20.050  0.00  0.00    -0.276 OA
ATOM     42  ND2 ASN A   3       6.046  -6.576  22.079  0.00  0.00    -0.329 N 
ATOM     43 HD21 ASN A   3       5.653  -7.391  21.622  0.00  0.00    +0.145 HD
ATOM     44 HD22 ASN A   3       5.671  -6.439  23.018  0.00  0.00    +0.145 HD
ENDBRANCH  39  40
ENDBRANCH  25  39
ENDBRANCH   3  25
TORSDOF 17
ENDMDL
MODEL 11
REMARK VINA RESULT:      -5.9      1.906      7.168
REMARK  Name = LQNN-mmff94.pdb
REMARK  19 active torsions:
REMARK  status: ('A' for Active; 'I' for Inactive)
REMARK    1  A    between atoms: _1  and  _2
REMARK    2  A    between atoms: _2  and  _3
REMARK    3  A    between atoms: _2  and  _5
REMARK    4  A    between atoms: _5  and  _6
REMARK    5  A    between atoms: _6  and  _7
REMARK    6  A    between atoms: _6  and  _8
REMARK    7  A    between atoms: _20  and  _21
REMARK    8  A    between atoms: _21  and  _22
REMARK    9  A    between atoms: _21  and  _24
REMARK   10  A    between atoms: _24  and  _25
REMARK   11  A    between atoms: _25  and  _26
REMARK   12  A    between atoms: _37  and  _38
REMARK   13  A    between atoms: _38  and  _39
REMARK   14  A    between atoms: _38  and  _41
REMARK   15  A    between atoms: _41  and  _42
REMARK   16  A    between atoms: _51  and  _52
REMARK   17  A    between atoms: _52  and  _53
REMARK   18  A    between atoms: _52  and  _55
REMARK   19  A    between atoms: _55  and  _56
REMARK                            x       y       z     vdW  Elec       q    Type
REMARK                         _______ _______ _______ _____ _____    ______ ____
ROOT
ATOM      1  C   GLN A   2       8.672  -1.515  22.449  0.00  0.00    +0.234 C 
ATOM      2  O   GLN A   2       9.798  -1.812  22.047  0.00  0.00    -0.274 OA
ATOM      3  N   ASN A   3       8.106  -2.109  23.549  0.00  0.00    -0.302 N 
ATOM      4  H   ASN A   3       7.156  -1.869  23.828  0.00  0.00    +0.150 HD
ENDROOT
BRANCH   1   5
ATOM      5  CA  GLN A   2       7.782  -0.483  21.736  0.00  0.00    +0.159 C 
BRANCH   5   8
ATOM      6  C   LEU A   1       7.142   0.983  23.630  0.00  0.00    +0.230 C 
ATOM      7  O   LEU A   1       6.321   0.172  24.053  0.00  0.00    -0.274 OA
ATOM      8  N   GLN A   2       7.885   0.758  22.496  0.00  0.00    -0.303 N 
ATOM      9  H   GLN A   2       8.518   1.472  22.147  0.00  0.00    +0.149 HD
BRANCH   6  10
ATOM     10  CA  LEU A   1       7.429   2.331  24.333  0.00  0.00    +0.138 C 
BRANCH  10  11
ATOM     11  N   LEU A   1       8.110   2.075  25.616  0.00  0.00    -0.320 NA
ATOM     12  H1  LEU A   1       7.496   1.496  26.193  0.00  0.00    +0.119 HD
ATOM     13  H2  LEU A   1       8.903   1.455  25.423  0.00  0.00    +0.119 HD
ENDBRANCH  10  11
BRANCH  10  14
ATOM     14  CB  LEU A   1       8.283   3.215  23.409  0.00  0.00    +0.031 C 
BRANCH  14  15
ATOM     15  CG  LEU A   1       9.633   3.677  23.994  0.00  0.00    -0.015 C 
ATOM     16  CD2 LEU A   1      10.780   2.960  23.276  0.00  0.00    +0.007 C 
ATOM     17  CD1 LEU A   1       9.824   5.190  23.890  0.00  0.00    +0.007 C 
ENDBRANCH  14  15
ENDBRANCH  10  14
ENDBRANCH   6  10
ENDBRANCH   5   8
BRANCH   5  18
ATOM     18  CB  GLN A   2       8.228  -0.276  20.280  0.00  0.00    +0.041 C 
BRANCH  18  19
ATOM     19  CG  GLN A   2       7.188   0.454  19.430  0.00  0.00    +0.098 C 
BRANCH  19  20
ATOM     20  CD  GLN A   2       6.192  -0.465  18.759  0.00  0.00    +0.211 C 
ATOM     21  OE1 GLN A   2       5.978  -0.433  17.552  0.00  0.00    -0.276 OA
ATOM     22  NE2 GLN A   2       5.484  -1.294  19.573  0.00  0.00    -0.329 N 
ATOM     23 HE21 GLN A   2       5.448  -1.178  20.576  0.00  0.00    +0.145 HD
ATOM     24 HE22 GLN A   2       4.755  -1.845  19.137  0.00  0.00    +0.145 HD
ENDBRANCH  19  20
ENDBRANCH  18  19
ENDBRANCH   5  18
ENDBRANCH   1   5
BRANCH   3  25
ATOM     25  CA  ASN A   3       8.720  -3.236  24.249  0.00  0.00    +0.168 C 
BRANCH  25  26
ATOM     26  C   ASN A   3       7.812  -4.447  23.967  0.00  0.00    +0.234 C 
ATOM     27  N   ASN A   4       6.579  -4.416  24.567  0.00  0.00    -0.304 N 
ATOM     28  H   ASN A   4       6.270  -3.593  25.082  0.00  0.00    +0.149 HD
ATOM     29  O   ASN A   3       8.163  -5.379  23.241  0.00  0.00    -0.274 OA
BRANCH  27  30
ATOM     30  CA  ASN A   4       5.600  -5.484  24.394  0.00  0.00    +0.145 C 
BRANCH  30  31
ATOM     31  C   ASN A   4       4.622  -5.021  23.323  0.00  0.00    +0.245 C 
ATOM     32  O   ASN A   4       4.574  -5.508  22.195  0.00  0.00    -0.299 OA
ENDBRANCH  30  31
BRANCH  30  33
ATOM     33  CB  ASN A   4       4.816  -5.791  25.663  0.00  0.00    +0.125 C 
BRANCH  33  34
ATOM     34  CG  ASN A   4       5.611  -6.372  26.811  0.00  0.00    +0.213 C 
ATOM     35  ND2 ASN A   4       4.970  -7.241  27.640  0.00  0.00    -0.329 N 
ATOM     36 HD21 ASN A   4       4.383  -7.961  27.222  0.00  0.00    +0.145 HD
ATOM     37 HD22 ASN A   4       5.564  -7.619  28.373  0.00  0.00    +0.145 HD
ATOM     38  OD1 ASN A   4       6.760  -6.016  27.054  0.00  0.00    -0.276 OA
ENDBRANCH  33  34
ENDBRANCH  30  33
ENDBRANCH  27  30
ENDBRANCH  25  26
BRANCH  25  39
ATOM     39  CB  ASN A   3       8.817  -3.021  25.753  0.00  0.00    +0.127 C 
BRANCH  39  40
ATOM     40  CG  ASN A   3       8.460  -1.645  26.267  0.00  0.00    +0.213 C 
ATOM     41  OD1 ASN A   3       9.220  -0.689  26.132  0.00  0.00    -0.276 OA
ATOM     42  ND2 ASN A   3       7.215  -1.449  26.778  0.00  0.00    -0.329 N 
ATOM     43 HD21 ASN A   3       7.071  -0.511  27.136  0.00  0.00    +0.145 HD
ATOM     44 HD22 ASN A   3       6.812  -2.162  27.386  0.00  0.00    +0.145 HD
ENDBRANCH  39  40
ENDBRANCH  25  39
ENDBRANCH   3  25
TORSDOF 17
ENDMDL
MODEL 12
REMARK VINA RESULT:      -5.9      2.239      7.201
REMARK  Name = LQNN-mmff94.pdb
REMARK  19 active torsions:
REMARK  status: ('A' for Active; 'I' for Inactive)
REMARK    1  A    between atoms: _1  and  _2
REMARK    2  A    between atoms: _2  and  _3
REMARK    3  A    between atoms: _2  and  _5
REMARK    4  A    between atoms: _5  and  _6
REMARK    5  A    between atoms: _6  and  _7
REMARK    6  A    between atoms: _6  and  _8
REMARK    7  A    between atoms: _20  and  _21
REMARK    8  A    between atoms: _21  and  _22
REMARK    9  A    between atoms: _21  and  _24
REMARK   10  A    between atoms: _24  and  _25
REMARK   11  A    between atoms: _25  and  _26
REMARK   12  A    between atoms: _37  and  _38
REMARK   13  A    between atoms: _38  and  _39
REMARK   14  A    between atoms: _38  and  _41
REMARK   15  A    between atoms: _41  and  _42
REMARK   16  A    between atoms: _51  and  _52
REMARK   17  A    between atoms: _52  and  _53
REMARK   18  A    between atoms: _52  and  _55
REMARK   19  A    between atoms: _55  and  _56
REMARK                            x       y       z     vdW  Elec       q    Type
REMARK                         _______ _______ _______ _____ _____    ______ ____
ROOT
ATOM      1  C   GLN A   2       6.569  -2.464  22.110  0.00  0.00    +0.234 C 
ATOM      2  O   GLN A   2       5.709  -3.017  21.424  0.00  0.00    -0.274 OA
ATOM      3  N   ASN A   3       7.264  -3.128  23.089  0.00  0.00    -0.302 N 
ATOM      4  H   ASN A   3       7.939  -2.628  23.666  0.00  0.00    +0.150 HD
ENDROOT
BRANCH   1   5
ATOM      5  CA  GLN A   2       6.917  -0.973  21.961  0.00  0.00    +0.159 C 
BRANCH   5   8
ATOM      6  C   LEU A   1       7.363   0.110  24.147  0.00  0.00    +0.230 C 
ATOM      7  O   LEU A   1       6.222   0.562  24.218  0.00  0.00    -0.274 OA
ATOM      8  N   GLN A   2       7.796  -0.633  23.075  0.00  0.00    -0.303 N 
ATOM      9  H   GLN A   2       8.761  -0.948  23.025  0.00  0.00    +0.149 HD
BRANCH   6  10
ATOM     10  CA  LEU A   1       8.420   0.320  25.257  0.00  0.00    +0.138 C 
BRANCH  10  11
ATOM     11  N   LEU A   1       8.785  -0.988  25.835  0.00  0.00    -0.320 NA
ATOM     12  H1  LEU A   1       7.925  -1.518  25.989  0.00  0.00    +0.119 HD
ATOM     13  H2  LEU A   1       9.263  -1.523  25.103  0.00  0.00    +0.119 HD
ENDBRANCH  10  11
BRANCH  10  14
ATOM     14  CB  LEU A   1       9.645   1.034  24.663  0.00  0.00    +0.031 C 
BRANCH  14  15
ATOM     15  CG  LEU A   1       9.355   2.371  23.951  0.00  0.00    -0.015 C 
ATOM     16  CD2 LEU A   1       8.660   3.332  24.921  0.00  0.00    +0.007 C 
ATOM     17  CD1 LEU A   1      10.623   3.022  23.398  0.00  0.00    +0.007 C 
ENDBRANCH  14  15
ENDBRANCH  10  14
ENDBRANCH   6  10
ENDBRANCH   5   8
BRANCH   5  18
ATOM     18  CB  GLN A   2       7.600  -0.693  20.613  0.00  0.00    +0.041 C 
BRANCH  18  19
ATOM     19  CG  GLN A   2       6.869   0.355  19.774  0.00  0.00    +0.098 C 
BRANCH  19  20
ATOM     20  CD  GLN A   2       6.166  -0.214  18.562  0.00  0.00    +0.211 C 
ATOM     21  OE1 GLN A   2       6.055   0.412  17.514  0.00  0.00    -0.276 OA
ATOM     22  NE2 GLN A   2       5.596  -1.441  18.709  0.00  0.00    -0.329 N 
ATOM     23 HE21 GLN A   2       5.449  -1.872  19.610  0.00  0.00    +0.145 HD
ATOM     24 HE22 GLN A   2       5.049  -1.784  17.928  0.00  0.00    +0.145 HD
ENDBRANCH  19  20
ENDBRANCH  18  19
ENDBRANCH   5  18
ENDBRANCH   1   5
BRANCH   3  25
ATOM     25  CA  ASN A   3       6.950  -4.495  23.501  0.00  0.00    +0.168 C 
BRANCH  25  26
ATOM     26  C   ASN A   3       6.191  -4.366  24.834  0.00  0.00    +0.234 C 
ATOM     27  N   ASN A   4       5.992  -5.537  25.519  0.00  0.00    -0.304 N 
ATOM     28  H   ASN A   4       6.410  -6.408  25.196  0.00  0.00    +0.149 HD
ATOM     29  O   ASN A   3       5.797  -3.280  25.266  0.00  0.00    -0.274 OA
BRANCH  27  30
ATOM     30  CA  ASN A   4       5.296  -5.582  26.801  0.00  0.00    +0.145 C 
BRANCH  30  31
ATOM     31  C   ASN A   4       6.363  -5.688  27.882  0.00  0.00    +0.245 C 
ATOM     32  O   ASN A   4       7.568  -5.742  27.640  0.00  0.00    -0.299 OA
ENDBRANCH  30  31
BRANCH  30  33
ATOM     33  CB  ASN A   4       4.357  -6.774  26.932  0.00  0.00    +0.125 C 
BRANCH  33  34
ATOM     34  CG  ASN A   4       3.570  -7.138  25.694  0.00  0.00    +0.213 C 
ATOM     35  ND2 ASN A   4       2.216  -7.005  25.751  0.00  0.00    -0.329 N 
ATOM     36 HD21 ASN A   4       1.833  -6.160  26.171  0.00  0.00    +0.145 HD
ATOM     37 HD22 ASN A   4       1.747  -7.237  24.879  0.00  0.00    +0.145 HD
ATOM     38  OD1 ASN A   4       4.104  -7.623  24.701  0.00  0.00    -0.276 OA
ENDBRANCH  33  34
ENDBRANCH  30  33
ENDBRANCH  27  30
ENDBRANCH  25  26
BRANCH  25  39
ATOM     39  CB  ASN A   3       8.190  -5.353  23.711  0.00  0.00    +0.127 C 
BRANCH  39  40
ATOM     40  CG  ASN A   3       9.280  -4.771  24.582  0.00  0.00    +0.213 C 
ATOM     41  OD1 ASN A   3       9.685  -3.622  24.427  0.00  0.00    -0.276 OA
ATOM     42  ND2 ASN A   3       9.726  -5.506  25.636  0.00  0.00    -0.329 N 
ATOM     43 HD21 ASN A   3      10.482  -5.061  26.143  0.00  0.00    +0.145 HD
ATOM     44 HD22 ASN A   3       9.878  -6.507  25.512  0.00  0.00    +0.145 HD
ENDBRANCH  39  40
ENDBRANCH  25  39
ENDBRANCH   3  25
TORSDOF 17
ENDMDL
MODEL 13
REMARK VINA RESULT:      -5.9      2.362      4.726
REMARK  Name = LQNN-mmff94.pdb
REMARK  19 active torsions:
REMARK  status: ('A' for Active; 'I' for Inactive)
REMARK    1  A    between atoms: _1  and  _2
REMARK    2  A    between atoms: _2  and  _3
REMARK    3  A    between atoms: _2  and  _5
REMARK    4  A    between atoms: _5  and  _6
REMARK    5  A    between atoms: _6  and  _7
REMARK    6  A    between atoms: _6  and  _8
REMARK    7  A    between atoms: _20  and  _21
REMARK    8  A    between atoms: _21  and  _22
REMARK    9  A    between atoms: _21  and  _24
REMARK   10  A    between atoms: _24  and  _25
REMARK   11  A    between atoms: _25  and  _26
REMARK   12  A    between atoms: _37  and  _38
REMARK   13  A    between atoms: _38  and  _39
REMARK   14  A    between atoms: _38  and  _41
REMARK   15  A    between atoms: _41  and  _42
REMARK   16  A    between atoms: _51  and  _52
REMARK   17  A    between atoms: _52  and  _53
REMARK   18  A    between atoms: _52  and  _55
REMARK   19  A    between atoms: _55  and  _56
REMARK                            x       y       z     vdW  Elec       q    Type
REMARK                         _______ _______ _______ _____ _____    ______ ____
ROOT
ATOM      1  C   GLN A   2       9.255   1.624  22.080  0.00  0.00    +0.234 C 
ATOM      2  O   GLN A   2      10.408   2.055  22.026  0.00  0.00    -0.274 OA
ATOM      3  N   ASN A   3       8.315   2.148  22.930  0.00  0.00    -0.302 N 
ATOM      4  H   ASN A   3       7.384   1.739  22.979  0.00  0.00    +0.150 HD
ENDROOT
BRANCH   1   5
ATOM      5  CA  GLN A   2       8.773   0.437  21.228  0.00  0.00    +0.159 C 
BRANCH   5   8
ATOM      6  C   LEU A   1       9.414  -1.615  22.463  0.00  0.00    +0.230 C 
ATOM      7  O   LEU A   1      10.533  -1.638  21.956  0.00  0.00    -0.274 OA
ATOM      8  N   GLN A   2       8.483  -0.653  22.153  0.00  0.00    -0.303 N 
ATOM      9  H   GLN A   2       7.549  -0.694  22.553  0.00  0.00    +0.149 HD
BRANCH   6  10
ATOM     10  CA  LEU A   1       8.944  -2.657  23.506  0.00  0.00    +0.138 C 
BRANCH  10  11
ATOM     11  N   LEU A   1       8.672  -1.975  24.786  0.00  0.00    -0.320 NA
ATOM     12  H1  LEU A   1       7.768  -2.301  25.134  0.00  0.00    +0.119 HD
ATOM     13  H2  LEU A   1       9.336  -2.342  25.474  0.00  0.00    +0.119 HD
ENDBRANCH  10  11
BRANCH  10  14
ATOM     14  CB  LEU A   1       7.693  -3.378  22.976  0.00  0.00    +0.031 C 
BRANCH  14  15
ATOM     15  CG  LEU A   1       7.621  -4.889  23.276  0.00  0.00    -0.015 C 
ATOM     16  CD2 LEU A   1       6.621  -5.144  24.407  0.00  0.00    +0.007 C 
ATOM     17  CD1 LEU A   1       7.229  -5.708  22.045  0.00  0.00    +0.007 C 
ENDBRANCH  14  15
ENDBRANCH  10  14
ENDBRANCH   6  10
ENDBRANCH   5   8
BRANCH   5  18
ATOM     18  CB  GLN A   2       7.529   0.811  20.407  0.00  0.00    +0.041 C 
BRANCH  18  19
ATOM     19  CG  GLN A   2       7.476   0.117  19.046  0.00  0.00    +0.098 C 
BRANCH  19  20
ATOM     20  CD  GLN A   2       6.072  -0.118  18.534  0.00  0.00    +0.211 C 
ATOM     21  OE1 GLN A   2       5.848  -0.627  17.441  0.00  0.00    -0.276 OA
ATOM     22  NE2 GLN A   2       5.055   0.328  19.320  0.00  0.00    -0.329 N 
ATOM     23 HE21 GLN A   2       5.197   0.964  20.092  0.00  0.00    +0.145 HD
ATOM     24 HE22 GLN A   2       4.120   0.252  18.939  0.00  0.00    +0.145 HD
ENDBRANCH  19  20
ENDBRANCH  18  19
ENDBRANCH   5  18
ENDBRANCH   1   5
BRANCH   3  25
ATOM     25  CA  ASN A   3       8.632   3.155  23.942  0.00  0.00    +0.168 C 
BRANCH  25  26
ATOM     26  C   ASN A   3       7.662   2.896  25.108  0.00  0.00    +0.234 C 
ATOM     27  N   ASN A   4       7.624   1.605  25.573  0.00  0.00    -0.304 N 
ATOM     28  H   ASN A   4       8.273   0.904  25.218  0.00  0.00    +0.149 HD
ATOM     29  O   ASN A   3       6.971   3.789  25.603  0.00  0.00    -0.274 OA
BRANCH  27  30
ATOM     30  CA  ASN A   4       6.762   1.199  26.678  0.00  0.00    +0.145 C 
BRANCH  30  31
ATOM     31  C   ASN A   4       7.592   0.298  27.582  0.00  0.00    +0.245 C 
ATOM     32  O   ASN A   4       7.985  -0.818  27.246  0.00  0.00    -0.299 OA
ENDBRANCH  30  31
BRANCH  30  33
ATOM     33  CB  ASN A   4       5.531   0.425  26.224  0.00  0.00    +0.125 C 
BRANCH  33  34
ATOM     34  CG  ASN A   4       5.730  -0.514  25.057  0.00  0.00    +0.213 C 
ATOM     35  ND2 ASN A   4       5.460  -1.834  25.260  0.00  0.00    -0.329 N 
ATOM     36 HD21 ASN A   4       4.609  -2.077  25.763  0.00  0.00    +0.145 HD
ATOM     37 HD22 ASN A   4       5.585  -2.408  24.431  0.00  0.00    +0.145 HD
ATOM     38  OD1 ASN A   4       6.204  -0.136  23.989  0.00  0.00    -0.276 OA
ENDBRANCH  33  34
ENDBRANCH  30  33
ENDBRANCH  27  30
ENDBRANCH  25  26
BRANCH  25  39
ATOM     39  CB  ASN A   3       8.444   4.581  23.442  0.00  0.00    +0.127 C 
BRANCH  39  40
ATOM     40  CG  ASN A   3       7.417   4.789  22.353  0.00  0.00    +0.213 C 
ATOM     41  OD1 ASN A   3       6.407   4.093  22.276  0.00  0.00    -0.276 OA
ATOM     42  ND2 ASN A   3       7.565   5.855  21.520  0.00  0.00    -0.329 N 
ATOM     43 HD21 ASN A   3       6.857   5.899  20.796  0.00  0.00    +0.145 HD
ATOM     44 HD22 ASN A   3       8.495   6.082  21.168  0.00  0.00    +0.145 HD
ENDBRANCH  39  40
ENDBRANCH  25  39
ENDBRANCH   3  25
TORSDOF 17
ENDMDL
MODEL 14
REMARK VINA RESULT:      -5.9      1.842      7.487
REMARK  Name = LQNN-mmff94.pdb
REMARK  19 active torsions:
REMARK  status: ('A' for Active; 'I' for Inactive)
REMARK    1  A    between atoms: _1  and  _2
REMARK    2  A    between atoms: _2  and  _3
REMARK    3  A    between atoms: _2  and  _5
REMARK    4  A    between atoms: _5  and  _6
REMARK    5  A    between atoms: _6  and  _7
REMARK    6  A    between atoms: _6  and  _8
REMARK    7  A    between atoms: _20  and  _21
REMARK    8  A    between atoms: _21  and  _22
REMARK    9  A    between atoms: _21  and  _24
REMARK   10  A    between atoms: _24  and  _25
REMARK   11  A    between atoms: _25  and  _26
REMARK   12  A    between atoms: _37  and  _38
REMARK   13  A    between atoms: _38  and  _39
REMARK   14  A    between atoms: _38  and  _41
REMARK   15  A    between atoms: _41  and  _42
REMARK   16  A    between atoms: _51  and  _52
REMARK   17  A    between atoms: _52  and  _53
REMARK   18  A    between atoms: _52  and  _55
REMARK   19  A    between atoms: _55  and  _56
REMARK                            x       y       z     vdW  Elec       q    Type
REMARK                         _______ _______ _______ _____ _____    ______ ____
ROOT
ATOM      1  C   GLN A   2       8.140  -0.784  22.026  0.00  0.00    +0.234 C 
ATOM      2  O   GLN A   2       9.112  -1.416  21.609  0.00  0.00    -0.274 OA
ATOM      3  N   ASN A   3       7.635  -0.966  23.288  0.00  0.00    -0.302 N 
ATOM      4  H   ASN A   3       6.804  -0.456  23.585  0.00  0.00    +0.150 HD
ENDROOT
BRANCH   1   5
ATOM      5  CA  GLN A   2       7.382   0.237  21.161  0.00  0.00    +0.159 C 
BRANCH   5   8
ATOM      6  C   LEU A   1       6.957   2.602  21.773  0.00  0.00    +0.230 C 
ATOM      7  O   LEU A   1       5.749   2.495  21.572  0.00  0.00    -0.274 OA
ATOM      8  N   GLN A   2       7.832   1.560  21.580  0.00  0.00    -0.303 N 
ATOM      9  H   GLN A   2       8.831   1.698  21.707  0.00  0.00    +0.149 HD
BRANCH   6  10
ATOM     10  CA  LEU A   1       7.613   3.911  22.272  0.00  0.00    +0.138 C 
BRANCH  10  11
ATOM     11  N   LEU A   1       6.719   5.047  21.973  0.00  0.00    -0.320 NA
ATOM     12  H1  LEU A   1       6.385   5.431  22.859  0.00  0.00    +0.119 HD
ATOM     13  H2  LEU A   1       7.300   5.801  21.594  0.00  0.00    +0.119 HD
ENDBRANCH  10  11
BRANCH  10  14
ATOM     14  CB  LEU A   1       7.892   3.798  23.780  0.00  0.00    +0.031 C 
BRANCH  14  15
ATOM     15  CG  LEU A   1       9.313   4.198  24.225  0.00  0.00    -0.015 C 
ATOM     16  CD2 LEU A   1      10.347   3.357  23.469  0.00  0.00    +0.007 C 
ATOM     17  CD1 LEU A   1       9.594   5.684  24.004  0.00  0.00    +0.007 C 
ENDBRANCH  14  15
ENDBRANCH  10  14
ENDBRANCH   6  10
ENDBRANCH   5   8
BRANCH   5  18
ATOM     18  CB  GLN A   2       7.653   0.009  19.666  0.00  0.00    +0.041 C 
BRANCH  18  19
ATOM     19  CG  GLN A   2       6.381  -0.236  18.854  0.00  0.00    +0.098 C 
BRANCH  19  20
ATOM     20  CD  GLN A   2       5.835   1.005  18.184  0.00  0.00    +0.211 C 
ATOM     21  OE1 GLN A   2       6.294   1.441  17.134  0.00  0.00    -0.276 OA
ATOM     22  NE2 GLN A   2       4.842   1.665  18.841  0.00  0.00    -0.329 N 
ATOM     23 HE21 GLN A   2       4.612   1.487  19.808  0.00  0.00    +0.145 HD
ATOM     24 HE22 GLN A   2       4.538   2.543  18.440  0.00  0.00    +0.145 HD
ENDBRANCH  19  20
ENDBRANCH  18  19
ENDBRANCH   5  18
ENDBRANCH   1   5
BRANCH   3  25
ATOM     25  CA  ASN A   3       8.104  -2.016  24.191  0.00  0.00    +0.168 C 
BRANCH  25  26
ATOM     26  C   ASN A   3       6.836  -2.692  24.742  0.00  0.00    +0.234 C 
ATOM     27  N   ASN A   4       6.675  -4.012  24.407  0.00  0.00    -0.304 N 
ATOM     28  H   ASN A   4       7.405  -4.517  23.906  0.00  0.00    +0.149 HD
ATOM     29  O   ASN A   3       6.024  -2.092  25.449  0.00  0.00    -0.274 OA
BRANCH  27  30
ATOM     30  CA  ASN A   4       5.529  -4.796  24.857  0.00  0.00    +0.145 C 
BRANCH  30  31
ATOM     31  C   ASN A   4       6.061  -5.850  25.818  0.00  0.00    +0.245 C 
ATOM     32  O   ASN A   4       7.119  -5.731  26.434  0.00  0.00    -0.299 OA
ENDBRANCH  30  31
BRANCH  30  33
ATOM     33  CB  ASN A   4       4.803  -5.503  23.720  0.00  0.00    +0.125 C 
BRANCH  33  34
ATOM     34  CG  ASN A   4       5.453  -5.412  22.359  0.00  0.00    +0.213 C 
ATOM     35  ND2 ASN A   4       6.139  -6.502  21.917  0.00  0.00    -0.329 N 
ATOM     36 HD21 ASN A   4       5.715  -7.419  22.040  0.00  0.00    +0.145 HD
ATOM     37 HD22 ASN A   4       6.527  -6.389  20.984  0.00  0.00    +0.145 HD
ATOM     38  OD1 ASN A   4       5.450  -4.374  21.703  0.00  0.00    -0.276 OA
ENDBRANCH  33  34
ENDBRANCH  30  33
ENDBRANCH  27  30
ENDBRANCH  25  26
BRANCH  25  39
ATOM     39  CB  ASN A   3       8.931  -1.478  25.351  0.00  0.00    +0.127 C 
BRANCH  39  40
ATOM     40  CG  ASN A   3       9.233   0.003  25.340  0.00  0.00    +0.213 C 
ATOM     41  OD1 ASN A   3       8.356   0.843  25.525  0.00  0.00    -0.276 OA
ATOM     42  ND2 ASN A   3      10.532   0.396  25.247  0.00  0.00    -0.329 N 
ATOM     43 HD21 ASN A   3      10.645   1.403  25.207  0.00  0.00    +0.145 HD
ATOM     44 HD22 ASN A   3      11.150  -0.090  24.597  0.00  0.00    +0.145 HD
ENDBRANCH  39  40
ENDBRANCH  25  39
ENDBRANCH   3  25
TORSDOF 17
ENDMDL
MODEL 15
REMARK VINA RESULT:      -5.9      2.269      5.449
REMARK  Name = LQNN-mmff94.pdb
REMARK  19 active torsions:
REMARK  status: ('A' for Active; 'I' for Inactive)
REMARK    1  A    between atoms: _1  and  _2
REMARK    2  A    between atoms: _2  and  _3
REMARK    3  A    between atoms: _2  and  _5
REMARK    4  A    between atoms: _5  and  _6
REMARK    5  A    between atoms: _6  and  _7
REMARK    6  A    between atoms: _6  and  _8
REMARK    7  A    between atoms: _20  and  _21
REMARK    8  A    between atoms: _21  and  _22
REMARK    9  A    between atoms: _21  and  _24
REMARK   10  A    between atoms: _24  and  _25
REMARK   11  A    between atoms: _25  and  _26
REMARK   12  A    between atoms: _37  and  _38
REMARK   13  A    between atoms: _38  and  _39
REMARK   14  A    between atoms: _38  and  _41
REMARK   15  A    between atoms: _41  and  _42
REMARK   16  A    between atoms: _51  and  _52
REMARK   17  A    between atoms: _52  and  _53
REMARK   18  A    between atoms: _52  and  _55
REMARK   19  A    between atoms: _55  and  _56
REMARK                            x       y       z     vdW  Elec       q    Type
REMARK                         _______ _______ _______ _____ _____    ______ ____
ROOT
ATOM      1  C   GLN A   2       7.040  -0.015  24.841  0.00  0.00    +0.234 C 
ATOM      2  O   GLN A   2       6.037  -0.525  24.341  0.00  0.00    -0.274 OA
ATOM      3  N   ASN A   3       7.261   1.339  24.822  0.00  0.00    -0.302 N 
ATOM      4  H   ASN A   3       8.122   1.723  25.208  0.00  0.00    +0.150 HD
ENDROOT
BRANCH   1   5
ATOM      5  CA  GLN A   2       8.155  -0.848  25.498  0.00  0.00    +0.159 C 
BRANCH   5   8
ATOM      6  C   LEU A   1       8.511  -3.292  25.282  0.00  0.00    +0.230 C 
ATOM      7  O   LEU A   1       8.637  -3.437  26.497  0.00  0.00    -0.274 OA
ATOM      8  N   GLN A   2       8.294  -2.064  24.705  0.00  0.00    -0.303 N 
ATOM      9  H   GLN A   2       8.246  -1.973  23.694  0.00  0.00    +0.149 HD
BRANCH   6  10
ATOM     10  CA  LEU A   1       8.574  -4.473  24.285  0.00  0.00    +0.138 C 
BRANCH  10  11
ATOM     11  N   LEU A   1       9.584  -5.445  24.746  0.00  0.00    -0.320 NA
ATOM     12  H1  LEU A   1       9.098  -6.301  25.021  0.00  0.00    +0.119 HD
ATOM     13  H2  LEU A   1      10.126  -5.735  23.926  0.00  0.00    +0.119 HD
ENDBRANCH  10  11
BRANCH  10  14
ATOM     14  CB  LEU A   1       7.183  -5.117  24.172  0.00  0.00    +0.031 C 
BRANCH  14  15
ATOM     15  CG  LEU A   1       6.501  -4.988  22.795  0.00  0.00    -0.015 C 
ATOM     16  CD2 LEU A   1       6.930  -6.149  21.894  0.00  0.00    +0.007 C 
ATOM     17  CD1 LEU A   1       4.976  -4.953  22.903  0.00  0.00    +0.007 C 
ENDBRANCH  14  15
ENDBRANCH  10  14
ENDBRANCH   6  10
ENDBRANCH   5   8
BRANCH   5  18
ATOM     18  CB  GLN A   2       9.477  -0.066  25.548  0.00  0.00    +0.041 C 
BRANCH  18  19
ATOM     19  CG  GLN A   2      10.316  -0.222  24.279  0.00  0.00    +0.098 C 
BRANCH  19  20
ATOM     20  CD  GLN A   2      10.402   1.037  23.445  0.00  0.00    +0.211 C 
ATOM     21  OE1 GLN A   2      10.643   2.134  23.936  0.00  0.00    -0.276 OA
ATOM     22  NE2 GLN A   2      10.129   0.907  22.118  0.00  0.00    -0.329 N 
ATOM     23 HE21 GLN A   2       9.689   0.087  21.726  0.00  0.00    +0.145 HD
ATOM     24 HE22 GLN A   2      10.098   1.762  21.576  0.00  0.00    +0.145 HD
ENDBRANCH  19  20
ENDBRANCH  18  19
ENDBRANCH   5  18
ENDBRANCH   1   5
BRANCH   3  25
ATOM     25  CA  ASN A   3       6.410   2.274  24.088  0.00  0.00    +0.168 C 
BRANCH  25  26
ATOM     26  C   ASN A   3       6.929   2.263  22.640  0.00  0.00    +0.234 C 
ATOM     27  N   ASN A   4       6.300   1.389  21.791  0.00  0.00    -0.304 N 
ATOM     28  H   ASN A   4       5.483   0.861  22.096  0.00  0.00    +0.149 HD
ATOM     29  O   ASN A   3       7.842   3.000  22.261  0.00  0.00    -0.274 OA
BRANCH  27  30
ATOM     30  CA  ASN A   4       6.670   1.264  20.384  0.00  0.00    +0.145 C 
BRANCH  30  31
ATOM     31  C   ASN A   4       5.396   1.447  19.571  0.00  0.00    +0.245 C 
ATOM     32  O   ASN A   4       5.081   0.715  18.634  0.00  0.00    -0.299 OA
ENDBRANCH  30  31
BRANCH  30  33
ATOM     33  CB  ASN A   4       7.270  -0.093  20.041  0.00  0.00    +0.125 C 
BRANCH  33  34
ATOM     34  CG  ASN A   4       7.193  -1.146  21.123  0.00  0.00    +0.213 C 
ATOM     35  ND2 ASN A   4       5.996  -1.769  21.307  0.00  0.00    -0.329 N 
ATOM     36 HD21 ASN A   4       5.482  -2.076  20.484  0.00  0.00    +0.145 HD
ATOM     37 HD22 ASN A   4       6.017  -2.486  22.027  0.00  0.00    +0.145 HD
ATOM     38  OD1 ASN A   4       8.135  -1.379  21.874  0.00  0.00    -0.276 OA
ENDBRANCH  33  34
ENDBRANCH  30  33
ENDBRANCH  27  30
ENDBRANCH  25  26
BRANCH  25  39
ATOM     39  CB  ASN A   3       6.477   3.694  24.634  0.00  0.00    +0.127 C 
BRANCH  39  40
ATOM     40  CG  ASN A   3       7.672   4.035  25.495  0.00  0.00    +0.213 C 
ATOM     41  OD1 ASN A   3       7.663   3.857  26.711  0.00  0.00    -0.276 OA
ATOM     42  ND2 ASN A   3       8.819   4.432  24.881  0.00  0.00    -0.329 N 
ATOM     43 HD21 ASN A   3       9.557   4.679  25.531  0.00  0.00    +0.145 HD
ATOM     44 HD22 ASN A   3       8.760   5.080  24.096  0.00  0.00    +0.145 HD
ENDBRANCH  39  40
ENDBRANCH  25  39
ENDBRANCH   3  25
TORSDOF 17
ENDMDL
MODEL 16
REMARK VINA RESULT:      -5.9      2.517      4.749
REMARK  Name = LQNN-mmff94.pdb
REMARK  19 active torsions:
REMARK  status: ('A' for Active; 'I' for Inactive)
REMARK    1  A    between atoms: _1  and  _2
REMARK    2  A    between atoms: _2  and  _3
REMARK    3  A    between atoms: _2  and  _5
REMARK    4  A    between atoms: _5  and  _6
REMARK    5  A    between atoms: _6  and  _7
REMARK    6  A    between atoms: _6  and  _8
REMARK    7  A    between atoms: _20  and  _21
REMARK    8  A    between atoms: _21  and  _22
REMARK    9  A    between atoms: _21  and  _24
REMARK   10  A    between atoms: _24  and  _25
REMARK   11  A    between atoms: _25  and  _26
REMARK   12  A    between atoms: _37  and  _38
REMARK   13  A    between atoms: _38  and  _39
REMARK   14  A    between atoms: _38  and  _41
REMARK   15  A    between atoms: _41  and  _42
REMARK   16  A    between atoms: _51  and  _52
REMARK   17  A    between atoms: _52  and  _53
REMARK   18  A    between atoms: _52  and  _55
REMARK   19  A    between atoms: _55  and  _56
REMARK                            x       y       z     vdW  Elec       q    Type
REMARK                         _______ _______ _______ _____ _____    ______ ____
ROOT
ATOM      1  C   GLN A   2       8.406  -1.153  26.141  0.00  0.00    +0.234 C 
ATOM      2  O   GLN A   2       8.991  -0.862  27.185  0.00  0.00    -0.274 OA
ATOM      3  N   ASN A   3       8.629  -0.482  24.965  0.00  0.00    -0.302 N 
ATOM      4  H   ASN A   3       8.097  -0.722  24.130  0.00  0.00    +0.150 HD
ENDROOT
BRANCH   1   5
ATOM      5  CA  GLN A   2       7.347  -2.266  26.065  0.00  0.00    +0.159 C 
BRANCH   5   8
ATOM      6  C   LEU A   1       5.868  -2.233  24.075  0.00  0.00    +0.230 C 
ATOM      7  O   LEU A   1       4.912  -1.809  24.723  0.00  0.00    -0.274 OA
ATOM      8  N   GLN A   2       7.087  -2.503  24.649  0.00  0.00    -0.303 N 
ATOM      9  H   GLN A   2       7.839  -2.900  24.093  0.00  0.00    +0.149 HD
BRANCH   6  10
ATOM     10  CA  LEU A   1       5.799  -2.494  22.552  0.00  0.00    +0.138 C 
BRANCH  10  11
ATOM     11  N   LEU A   1       6.345  -1.327  21.833  0.00  0.00    -0.320 NA
ATOM     12  H1  LEU A   1       6.909  -0.784  22.490  0.00  0.00    +0.119 HD
ATOM     13  H2  LEU A   1       7.037  -1.678  21.163  0.00  0.00    +0.119 HD
ENDBRANCH  10  11
BRANCH  10  14
ATOM     14  CB  LEU A   1       6.580  -3.776  22.220  0.00  0.00    +0.031 C 
BRANCH  14  15
ATOM     15  CG  LEU A   1       5.726  -5.048  22.044  0.00  0.00    -0.015 C 
ATOM     16  CD2 LEU A   1       6.270  -5.878  20.877  0.00  0.00    +0.007 C 
ATOM     17  CD1 LEU A   1       5.687  -5.902  23.311  0.00  0.00    +0.007 C 
ENDBRANCH  14  15
ENDBRANCH  10  14
ENDBRANCH   6  10
ENDBRANCH   5   8
BRANCH   5  18
ATOM     18  CB  GLN A   2       7.836  -3.547  26.759  0.00  0.00    +0.041 C 
BRANCH  18  19
ATOM     19  CG  GLN A   2       8.135  -4.683  25.781  0.00  0.00    +0.098 C 
BRANCH  19  20
ATOM     20  CD  GLN A   2       9.540  -4.654  25.222  0.00  0.00    +0.211 C 
ATOM     21  OE1 GLN A   2       9.885  -3.860  24.354  0.00  0.00    -0.276 OA
ATOM     22  NE2 GLN A   2      10.398  -5.606  25.681  0.00  0.00    -0.329 N 
ATOM     23 HE21 GLN A   2      10.091  -6.418  26.197  0.00  0.00    +0.145 HD
ATOM     24 HE22 GLN A   2      11.310  -5.644  25.243  0.00  0.00    +0.145 HD
ENDBRANCH  19  20
ENDBRANCH  18  19
ENDBRANCH   5  18
ENDBRANCH   1   5
BRANCH   3  25
ATOM     25  CA  ASN A   3       9.461   0.718  24.878  0.00  0.00    +0.168 C 
BRANCH  25  26
ATOM     26  C   ASN A   3       8.481   1.903  24.827  0.00  0.00    +0.234 C 
ATOM     27  N   ASN A   4       7.169   1.578  24.593  0.00  0.00    -0.304 N 
ATOM     28  H   ASN A   4       6.871   0.604  24.555  0.00  0.00    +0.149 HD
ATOM     29  O   ASN A   3       8.846   3.068  24.997  0.00  0.00    -0.274 OA
BRANCH  27  30
ATOM     30  CA  ASN A   4       6.116   2.587  24.523  0.00  0.00    +0.145 C 
BRANCH  30  31
ATOM     31  C   ASN A   4       5.085   2.228  25.584  0.00  0.00    +0.245 C 
ATOM     32  O   ASN A   4       4.120   1.497  25.368  0.00  0.00    -0.299 OA
ENDBRANCH  30  31
BRANCH  30  33
ATOM     33  CB  ASN A   4       5.420   2.632  23.169  0.00  0.00    +0.125 C 
BRANCH  33  34
ATOM     34  CG  ASN A   4       6.323   2.669  21.958  0.00  0.00    +0.213 C 
ATOM     35  ND2 ASN A   4       6.110   1.738  20.987  0.00  0.00    -0.329 N 
ATOM     36 HD21 ASN A   4       5.150   1.554  20.701  0.00  0.00    +0.145 HD
ATOM     37 HD22 ASN A   4       6.729   1.834  20.187  0.00  0.00    +0.145 HD
ATOM     38  OD1 ASN A   4       7.274   3.441  21.878  0.00  0.00    -0.276 OA
ENDBRANCH  33  34
ENDBRANCH  30  33
ENDBRANCH  27  30
ENDBRANCH  25  26
BRANCH  25  39
ATOM     39  CB  ASN A   3      10.343   0.742  23.637  0.00  0.00    +0.127 C 
BRANCH  39  40
ATOM     40  CG  ASN A   3       9.644   0.935  22.310  0.00  0.00    +0.213 C 
ATOM     41  OD1 ASN A   3       8.730   0.197  21.949  0.00  0.00    -0.276 OA
ATOM     42  ND2 ASN A   3       9.961   2.028  21.566  0.00  0.00    -0.329 N 
ATOM     43 HD21 ASN A   3       9.477   2.061  20.676  0.00  0.00    +0.145 HD
ATOM     44 HD22 ASN A   3      10.940   2.306  21.487  0.00  0.00    +0.145 HD
ENDBRANCH  39  40
ENDBRANCH  25  39
ENDBRANCH   3  25
TORSDOF 17
ENDMDL
MODEL 17
REMARK VINA RESULT:      -5.8      1.991      2.889
REMARK  Name = LQNN-mmff94.pdb
REMARK  19 active torsions:
REMARK  status: ('A' for Active; 'I' for Inactive)
REMARK    1  A    between atoms: _1  and  _2
REMARK    2  A    between atoms: _2  and  _3
REMARK    3  A    between atoms: _2  and  _5
REMARK    4  A    between atoms: _5  and  _6
REMARK    5  A    between atoms: _6  and  _7
REMARK    6  A    between atoms: _6  and  _8
REMARK    7  A    between atoms: _20  and  _21
REMARK    8  A    between atoms: _21  and  _22
REMARK    9  A    between atoms: _21  and  _24
REMARK   10  A    between atoms: _24  and  _25
REMARK   11  A    between atoms: _25  and  _26
REMARK   12  A    between atoms: _37  and  _38
REMARK   13  A    between atoms: _38  and  _39
REMARK   14  A    between atoms: _38  and  _41
REMARK   15  A    between atoms: _41  and  _42
REMARK   16  A    between atoms: _51  and  _52
REMARK   17  A    between atoms: _52  and  _53
REMARK   18  A    between atoms: _52  and  _55
REMARK   19  A    between atoms: _55  and  _56
REMARK                            x       y       z     vdW  Elec       q    Type
REMARK                         _______ _______ _______ _____ _____    ______ ____
ROOT
ATOM      1  C   GLN A   2       9.272  -2.352  22.888  0.00  0.00    +0.234 C 
ATOM      2  O   GLN A   2      10.434  -2.610  23.208  0.00  0.00    -0.274 OA
ATOM      3  N   ASN A   3       8.869  -1.086  22.549  0.00  0.00    -0.302 N 
ATOM      4  H   ASN A   3       7.891  -0.901  22.331  0.00  0.00    +0.150 HD
ENDROOT
BRANCH   1   5
ATOM      5  CA  GLN A   2       8.160  -3.415  22.877  0.00  0.00    +0.159 C 
BRANCH   5   8
ATOM      6  C   LEU A   1       8.385  -5.102  24.680  0.00  0.00    +0.230 C 
ATOM      7  O   LEU A   1       8.878  -5.932  23.919  0.00  0.00    -0.274 OA
ATOM      8  N   GLN A   2       7.986  -3.857  24.257  0.00  0.00    -0.303 N 
ATOM      9  H   GLN A   2       7.536  -3.214  24.902  0.00  0.00    +0.149 HD
BRANCH   6  10
ATOM     10  CA  LEU A   1       8.172  -5.369  26.189  0.00  0.00    +0.138 C 
BRANCH  10  11
ATOM     11  N   LEU A   1       9.213  -4.661  26.960  0.00  0.00    -0.320 NA
ATOM     12  H1  LEU A   1      10.116  -4.845  26.518  0.00  0.00    +0.119 HD
ATOM     13  H2  LEU A   1       9.076  -3.658  26.808  0.00  0.00    +0.119 HD
ENDBRANCH  10  11
BRANCH  10  14
ATOM     14  CB  LEU A   1       6.762  -4.909  26.593  0.00  0.00    +0.031 C 
BRANCH  14  15
ATOM     15  CG  LEU A   1       5.615  -5.868  26.215  0.00  0.00    -0.015 C 
ATOM     16  CD2 LEU A   1       5.152  -6.634  27.457  0.00  0.00    +0.007 C 
ATOM     17  CD1 LEU A   1       4.430  -5.137  25.585  0.00  0.00    +0.007 C 
ENDBRANCH  14  15
ENDBRANCH  10  14
ENDBRANCH   6  10
ENDBRANCH   5   8
BRANCH   5  18
ATOM     18  CB  GLN A   2       6.851  -2.844  22.311  0.00  0.00    +0.041 C 
BRANCH  18  19
ATOM     19  CG  GLN A   2       5.677  -3.818  22.410  0.00  0.00    +0.098 C 
BRANCH  19  20
ATOM     20  CD  GLN A   2       5.899  -5.120  21.674  0.00  0.00    +0.211 C 
ATOM     21  OE1 GLN A   2       5.973  -5.179  20.452  0.00  0.00    -0.276 OA
ATOM     22  NE2 GLN A   2       5.946  -6.248  22.434  0.00  0.00    -0.329 N 
ATOM     23 HE21 GLN A   2       5.644  -6.274  23.398  0.00  0.00    +0.145 HD
ATOM     24 HE22 GLN A   2       6.005  -7.129  21.937  0.00  0.00    +0.145 HD
ENDBRANCH  19  20
ENDBRANCH  18  19
ENDBRANCH   5  18
ENDBRANCH   1   5
BRANCH   3  25
ATOM     25  CA  ASN A   3       9.735   0.086  22.675  0.00  0.00    +0.168 C 
BRANCH  25  26
ATOM     26  C   ASN A   3       9.490   0.636  24.091  0.00  0.00    +0.234 C 
ATOM     27  N   ASN A   4       8.353   0.187  24.713  0.00  0.00    -0.304 N 
ATOM     28  H   ASN A   4       7.775  -0.535  24.286  0.00  0.00    +0.149 HD
ATOM     29  O   ASN A   3      10.269   1.420  24.637  0.00  0.00    -0.274 OA
BRANCH  27  30
ATOM     30  CA  ASN A   4       7.984   0.610  26.061  0.00  0.00    +0.145 C 
BRANCH  30  31
ATOM     31  C   ASN A   4       8.057  -0.624  26.949  0.00  0.00    +0.245 C 
ATOM     32  O   ASN A   4       8.506  -1.705  26.570  0.00  0.00    -0.299 OA
ENDBRANCH  30  31
BRANCH  30  33
ATOM     33  CB  ASN A   4       6.574   1.180  26.143  0.00  0.00    +0.125 C 
BRANCH  33  34
ATOM     34  CG  ASN A   4       5.626   0.773  25.038  0.00  0.00    +0.213 C 
ATOM     35  ND2 ASN A   4       5.181   1.752  24.202  0.00  0.00    -0.329 N 
ATOM     36 HD21 ASN A   4       5.857   2.428  23.851  0.00  0.00    +0.145 HD
ATOM     37 HD22 ASN A   4       4.572   1.411  23.463  0.00  0.00    +0.145 HD
ATOM     38  OD1 ASN A   4       5.193  -0.371  24.939  0.00  0.00    -0.276 OA
ENDBRANCH  33  34
ENDBRANCH  30  33
ENDBRANCH  27  30
ENDBRANCH  25  26
BRANCH  25  39
ATOM     39  CB  ASN A   3       9.420   1.171  21.653  0.00  0.00    +0.127 C 
BRANCH  39  40
ATOM     40  CG  ASN A   3       8.090   1.874  21.796  0.00  0.00    +0.213 C 
ATOM     41  OD1 ASN A   3       7.032   1.250  21.844  0.00  0.00    -0.276 OA
ATOM     42  ND2 ASN A   3       8.089   3.219  22.000  0.00  0.00    -0.329 N 
ATOM     43 HD21 ASN A   3       7.157   3.616  22.045  0.00  0.00    +0.145 HD
ATOM     44 HD22 ASN A   3       8.733   3.800  21.464  0.00  0.00    +0.145 HD
ENDBRANCH  39  40
ENDBRANCH  25  39
ENDBRANCH   3  25
TORSDOF 17
ENDMDL
MODEL 18
REMARK VINA RESULT:      -5.8      2.240      5.596
REMARK  Name = LQNN-mmff94.pdb
REMARK  19 active torsions:
REMARK  status: ('A' for Active; 'I' for Inactive)
REMARK    1  A    between atoms: _1  and  _2
REMARK    2  A    between atoms: _2  and  _3
REMARK    3  A    between atoms: _2  and  _5
REMARK    4  A    between atoms: _5  and  _6
REMARK    5  A    between atoms: _6  and  _7
REMARK    6  A    between atoms: _6  and  _8
REMARK    7  A    between atoms: _20  and  _21
REMARK    8  A    between atoms: _21  and  _22
REMARK    9  A    between atoms: _21  and  _24
REMARK   10  A    between atoms: _24  and  _25
REMARK   11  A    between atoms: _25  and  _26
REMARK   12  A    between atoms: _37  and  _38
REMARK   13  A    between atoms: _38  and  _39
REMARK   14  A    between atoms: _38  and  _41
REMARK   15  A    between atoms: _41  and  _42
REMARK   16  A    between atoms: _51  and  _52
REMARK   17  A    between atoms: _52  and  _53
REMARK   18  A    between atoms: _52  and  _55
REMARK   19  A    between atoms: _55  and  _56
REMARK                            x       y       z     vdW  Elec       q    Type
REMARK                         _______ _______ _______ _____ _____    ______ ____
ROOT
ATOM      1  C   GLN A   2       5.141  -2.524  25.874  0.00  0.00    +0.234 C 
ATOM      2  O   GLN A   2       4.057  -1.939  25.868  0.00  0.00    -0.274 OA
ATOM      3  N   ASN A   3       6.263  -1.993  25.289  0.00  0.00    -0.302 N 
ATOM      4  H   ASN A   3       7.132  -2.523  25.276  0.00  0.00    +0.150 HD
ENDROOT
BRANCH   1   5
ATOM      5  CA  GLN A   2       5.330  -3.916  26.501  0.00  0.00    +0.159 C 
BRANCH   5   8
ATOM      6  C   LEU A   1       4.579  -6.007  25.402  0.00  0.00    +0.230 C 
ATOM      7  O   LEU A   1       3.845  -6.304  26.342  0.00  0.00    -0.274 OA
ATOM      8  N   GLN A   2       5.355  -4.873  25.400  0.00  0.00    -0.303 N 
ATOM      9  H   GLN A   2       5.988  -4.685  24.629  0.00  0.00    +0.149 HD
BRANCH   6  10
ATOM     10  CA  LEU A   1       4.697  -6.872  24.124  0.00  0.00    +0.138 C 
BRANCH  10  11
ATOM     11  N   LEU A   1       3.451  -7.642  23.942  0.00  0.00    -0.320 NA
ATOM     12  H1  LEU A   1       3.626  -8.603  24.242  0.00  0.00    +0.119 HD
ATOM     13  H2  LEU A   1       2.776  -7.299  24.631  0.00  0.00    +0.119 HD
ENDBRANCH  10  11
BRANCH  10  14
ATOM     14  CB  LEU A   1       4.975  -5.960  22.918  0.00  0.00    +0.031 C 
BRANCH  14  15
ATOM     15  CG  LEU A   1       6.276  -6.260  22.145  0.00  0.00    -0.015 C 
ATOM     16  CD2 LEU A   1       6.198  -5.644  20.745  0.00  0.00    +0.007 C 
ATOM     17  CD1 LEU A   1       7.517  -5.740  22.871  0.00  0.00    +0.007 C 
ENDBRANCH  14  15
ENDBRANCH  10  14
ENDBRANCH   6  10
ENDBRANCH   5   8
BRANCH   5  18
ATOM     18  CB  GLN A   2       6.627  -3.984  27.322  0.00  0.00    +0.041 C 
BRANCH  18  19
ATOM     19  CG  GLN A   2       7.600  -5.052  26.821  0.00  0.00    +0.098 C 
BRANCH  19  20
ATOM     20  CD  GLN A   2       8.832  -4.489  26.149  0.00  0.00    +0.211 C 
ATOM     21  OE1 GLN A   2       8.904  -3.322  25.782  0.00  0.00    -0.276 OA
ATOM     22  NE2 GLN A   2       9.845  -5.364  25.904  0.00  0.00    -0.329 N 
ATOM     23 HE21 GLN A   2       9.730  -6.366  25.960  0.00  0.00    +0.145 HD
ATOM     24 HE22 GLN A   2      10.633  -5.010  25.375  0.00  0.00    +0.145 HD
ENDBRANCH  19  20
ENDBRANCH  18  19
ENDBRANCH   5  18
ENDBRANCH   1   5
BRANCH   3  25
ATOM     25  CA  ASN A   3       6.240  -0.769  24.489  0.00  0.00    +0.168 C 
BRANCH  25  26
ATOM     26  C   ASN A   3       6.904  -1.133  23.150  0.00  0.00    +0.234 C 
ATOM     27  N   ASN A   4       6.894  -0.147  22.196  0.00  0.00    -0.304 N 
ATOM     28  H   ASN A   4       6.550   0.787  22.414  0.00  0.00    +0.149 HD
ATOM     29  O   ASN A   3       7.423  -2.233  22.948  0.00  0.00    -0.274 OA
BRANCH  27  30
ATOM     30  CA  ASN A   4       7.489  -0.333  20.876  0.00  0.00    +0.145 C 
BRANCH  30  31
ATOM     31  C   ASN A   4       8.890   0.261  20.933  0.00  0.00    +0.245 C 
ATOM     32  O   ASN A   4       9.260   1.037  21.813  0.00  0.00    -0.299 OA
ENDBRANCH  30  31
BRANCH  30  33
ATOM     33  CB  ASN A   4       6.714   0.365  19.766  0.00  0.00    +0.125 C 
BRANCH  33  34
ATOM     34  CG  ASN A   4       5.983  -0.536  18.798  0.00  0.00    +0.213 C 
ATOM     35  ND2 ASN A   4       5.534  -1.731  19.271  0.00  0.00    -0.329 N 
ATOM     36 HD21 ASN A   4       5.071  -1.746  20.178  0.00  0.00    +0.145 HD
ATOM     37 HD22 ASN A   4       5.025  -2.278  18.581  0.00  0.00    +0.145 HD
ATOM     38  OD1 ASN A   4       5.870  -0.258  17.607  0.00  0.00    -0.276 OA
ENDBRANCH  33  34
ENDBRANCH  30  33
ENDBRANCH  27  30
ENDBRANCH  25  26
BRANCH  25  39
ATOM     39  CB  ASN A   3       7.008   0.377  25.135  0.00  0.00    +0.127 C 
BRANCH  39  40
ATOM     40  CG  ASN A   3       7.993   0.010  26.220  0.00  0.00    +0.213 C 
ATOM     41  OD1 ASN A   3       7.624  -0.273  27.357  0.00  0.00    -0.276 OA
ATOM     42  ND2 ASN A   3       9.304  -0.127  25.884  0.00  0.00    -0.329 N 
ATOM     43 HD21 ASN A   3       9.901  -0.335  26.676  0.00  0.00    +0.145 HD
ATOM     44 HD22 ASN A   3       9.724   0.551  25.248  0.00  0.00    +0.145 HD
ENDBRANCH  39  40
ENDBRANCH  25  39
ENDBRANCH   3  25
TORSDOF 17
ENDMDL
MODEL 19
REMARK VINA RESULT:      -5.8      1.435      2.374
REMARK  Name = LQNN-mmff94.pdb
REMARK  19 active torsions:
REMARK  status: ('A' for Active; 'I' for Inactive)
REMARK    1  A    between atoms: _1  and  _2
REMARK    2  A    between atoms: _2  and  _3
REMARK    3  A    between atoms: _2  and  _5
REMARK    4  A    between atoms: _5  and  _6
REMARK    5  A    between atoms: _6  and  _7
REMARK    6  A    between atoms: _6  and  _8
REMARK    7  A    between atoms: _20  and  _21
REMARK    8  A    between atoms: _21  and  _22
REMARK    9  A    between atoms: _21  and  _24
REMARK   10  A    between atoms: _24  and  _25
REMARK   11  A    between atoms: _25  and  _26
REMARK   12  A    between atoms: _37  and  _38
REMARK   13  A    between atoms: _38  and  _39
REMARK   14  A    between atoms: _38  and  _41
REMARK   15  A    between atoms: _41  and  _42
REMARK   16  A    between atoms: _51  and  _52
REMARK   17  A    between atoms: _52  and  _53
REMARK   18  A    between atoms: _52  and  _55
REMARK   19  A    between atoms: _55  and  _56
REMARK                            x       y       z     vdW  Elec       q    Type
REMARK                         _______ _______ _______ _____ _____    ______ ____
ROOT
ATOM      1  C   GLN A   2       8.329  -1.997  21.859  0.00  0.00    +0.234 C 
ATOM      2  O   GLN A   2       9.523  -1.777  22.074  0.00  0.00    -0.274 OA
ATOM      3  N   ASN A   3       7.556  -1.159  21.097  0.00  0.00    -0.302 N 
ATOM      4  H   ASN A   3       6.562  -1.348  20.975  0.00  0.00    +0.150 HD
ENDROOT
BRANCH   1   5
ATOM      5  CA  GLN A   2       7.588  -3.205  22.455  0.00  0.00    +0.159 C 
BRANCH   5   8
ATOM      6  C   LEU A   1       8.396  -4.302  24.527  0.00  0.00    +0.230 C 
ATOM      7  O   LEU A   1       8.631  -5.358  23.943  0.00  0.00    -0.274 OA
ATOM      8  N   GLN A   2       7.868  -3.206  23.887  0.00  0.00    -0.303 N 
ATOM      9  H   GLN A   2       7.638  -2.367  24.411  0.00  0.00    +0.149 HD
BRANCH   6  10
ATOM     10  CA  LEU A   1       8.678  -4.096  26.034  0.00  0.00    +0.138 C 
BRANCH  10  11
ATOM     11  N   LEU A   1       8.428  -2.685  26.387  0.00  0.00    -0.320 NA
ATOM     12  H1  LEU A   1       9.329  -2.238  26.567  0.00  0.00    +0.119 HD
ATOM     13  H2  LEU A   1       8.095  -2.213  25.541  0.00  0.00    +0.119 HD
ENDBRANCH  10  11
BRANCH  10  14
ATOM     14  CB  LEU A   1       7.788  -5.046  26.853  0.00  0.00    +0.031 C 
BRANCH  14  15
ATOM     15  CG  LEU A   1       6.269  -4.829  26.702  0.00  0.00    -0.015 C 
ATOM     16  CD2 LEU A   1       5.622  -6.089  26.120  0.00  0.00    +0.007 C 
ATOM     17  CD1 LEU A   1       5.599  -4.470  28.029  0.00  0.00    +0.007 C 
ENDBRANCH  14  15
ENDBRANCH  10  14
ENDBRANCH   6  10
ENDBRANCH   5   8
BRANCH   5  18
ATOM     18  CB  GLN A   2       6.077  -3.118  22.188  0.00  0.00    +0.041 C 
BRANCH  18  19
ATOM     19  CG  GLN A   2       5.357  -4.455  22.364  0.00  0.00    +0.098 C 
BRANCH  19  20
ATOM     20  CD  GLN A   2       5.943  -5.578  21.537  0.00  0.00    +0.211 C 
ATOM     21  OE1 GLN A   2       5.965  -5.549  20.312  0.00  0.00    -0.276 OA
ATOM     22  NE2 GLN A   2       6.388  -6.668  22.220  0.00  0.00    -0.329 N 
ATOM     23 HE21 GLN A   2       6.163  -6.837  23.190  0.00  0.00    +0.145 HD
ATOM     24 HE22 GLN A   2       6.697  -7.457  21.665  0.00  0.00    +0.145 HD
ENDBRANCH  19  20
ENDBRANCH  18  19
ENDBRANCH   5  18
ENDBRANCH   1   5
BRANCH   3  25
ATOM     25  CA  ASN A   3       8.033   0.130  20.597  0.00  0.00    +0.168 C 
BRANCH  25  26
ATOM     26  C   ASN A   3       7.837   1.126  21.754  0.00  0.00    +0.234 C 
ATOM     27  N   ASN A   4       6.849   0.807  22.650  0.00  0.00    -0.304 N 
ATOM     28  H   ASN A   4       6.354  -0.082  22.588  0.00  0.00    +0.149 HD
ATOM     29  O   ASN A   3       8.531   2.137  21.878  0.00  0.00    -0.274 OA
BRANCH  27  30
ATOM     30  CA  ASN A   4       6.544   1.645  23.806  0.00  0.00    +0.145 C 
BRANCH  30  31
ATOM     31  C   ASN A   4       6.454   0.721  25.013  0.00  0.00    +0.245 C 
ATOM     32  O   ASN A   4       6.579  -0.501  24.940  0.00  0.00    -0.299 OA
ENDBRANCH  30  31
BRANCH  30  33
ATOM     33  CB  ASN A   4       5.225   2.393  23.672  0.00  0.00    +0.125 C 
BRANCH  33  34
ATOM     34  CG  ASN A   4       5.044   3.200  22.406  0.00  0.00    +0.213 C 
ATOM     35  ND2 ASN A   4       5.980   4.148  22.128  0.00  0.00    -0.329 N 
ATOM     36 HD21 ASN A   4       6.962   3.905  22.249  0.00  0.00    +0.145 HD
ATOM     37 HD22 ASN A   4       5.819   4.635  21.250  0.00  0.00    +0.145 HD
ATOM     38  OD1 ASN A   4       4.051   3.081  21.694  0.00  0.00    -0.276 OA
ENDBRANCH  33  34
ENDBRANCH  30  33
ENDBRANCH  27  30
ENDBRANCH  25  26
BRANCH  25  39
ATOM     39  CB  ASN A   3       7.260   0.619  19.379  0.00  0.00    +0.127 C 
BRANCH  39  40
ATOM     40  CG  ASN A   3       5.832   0.143  19.245  0.00  0.00    +0.213 C 
ATOM     41  OD1 ASN A   3       5.558  -1.049  19.125  0.00  0.00    -0.276 OA
ATOM     42  ND2 ASN A   3       4.831   1.053  19.385  0.00  0.00    -0.329 N 
ATOM     43 HD21 ASN A   3       3.908   0.660  19.241  0.00  0.00    +0.145 HD
ATOM     44 HD22 ASN A   3       4.934   1.971  18.952  0.00  0.00    +0.145 HD
ENDBRANCH  39  40
ENDBRANCH  25  39
ENDBRANCH   3  25
TORSDOF 17
ENDMDL
MODEL 20
REMARK VINA RESULT:      -5.8      1.477      2.294
REMARK  Name = LQNN-mmff94.pdb
REMARK  19 active torsions:
REMARK  status: ('A' for Active; 'I' for Inactive)
REMARK    1  A    between atoms: _1  and  _2
REMARK    2  A    between atoms: _2  and  _3
REMARK    3  A    between atoms: _2  and  _5
REMARK    4  A    between atoms: _5  and  _6
REMARK    5  A    between atoms: _6  and  _7
REMARK    6  A    between atoms: _6  and  _8
REMARK    7  A    between atoms: _20  and  _21
REMARK    8  A    between atoms: _21  and  _22
REMARK    9  A    between atoms: _21  and  _24
REMARK   10  A    between atoms: _24  and  _25
REMARK   11  A    between atoms: _25  and  _26
REMARK   12  A    between atoms: _37  and  _38
REMARK   13  A    between atoms: _38  and  _39
REMARK   14  A    between atoms: _38  and  _41
REMARK   15  A    between atoms: _41  and  _42
REMARK   16  A    between atoms: _51  and  _52
REMARK   17  A    between atoms: _52  and  _53
REMARK   18  A    between atoms: _52  and  _55
REMARK   19  A    between atoms: _55  and  _56
REMARK                            x       y       z     vdW  Elec       q    Type
REMARK                         _______ _______ _______ _____ _____    ______ ____
ROOT
ATOM      1  C   GLN A   2       8.133  -1.691  21.811  0.00  0.00    +0.234 C 
ATOM      2  O   GLN A   2       9.217  -1.293  22.242  0.00  0.00    -0.274 OA
ATOM      3  N   ASN A   3       7.444  -1.023  20.832  0.00  0.00    -0.302 N 
ATOM      4  H   ASN A   3       6.530  -1.358  20.530  0.00  0.00    +0.150 HD
ENDROOT
BRANCH   1   5
ATOM      5  CA  GLN A   2       7.436  -2.950  22.356  0.00  0.00    +0.159 C 
BRANCH   5   8
ATOM      6  C   LEU A   1       8.112  -3.860  24.561  0.00  0.00    +0.230 C 
ATOM      7  O   LEU A   1       8.587  -4.876  24.058  0.00  0.00    -0.274 OA
ATOM      8  N   GLN A   2       7.513  -2.876  23.811  0.00  0.00    -0.303 N 
ATOM      9  H   GLN A   2       7.085  -2.074  24.264  0.00  0.00    +0.149 HD
BRANCH   6  10
ATOM     10  CA  LEU A   1       8.147  -3.580  26.082  0.00  0.00    +0.138 C 
BRANCH  10  11
ATOM     11  N   LEU A   1       8.831  -4.695  26.766  0.00  0.00    -0.320 NA
ATOM     12  H1  LEU A   1       9.459  -5.142  26.095  0.00  0.00    +0.119 HD
ATOM     13  H2  LEU A   1       9.473  -4.285  27.451  0.00  0.00    +0.119 HD
ENDBRANCH  10  11
BRANCH  10  14
ATOM     14  CB  LEU A   1       8.861  -2.242  26.336  0.00  0.00    +0.031 C 
BRANCH  14  15
ATOM     15  CG  LEU A   1       7.953  -1.079  26.786  0.00  0.00    -0.015 C 
ATOM     16  CD2 LEU A   1       8.087   0.090  25.806  0.00  0.00    +0.007 C 
ATOM     17  CD1 LEU A   1       6.486  -1.497  26.896  0.00  0.00    +0.007 C 
ENDBRANCH  14  15
ENDBRANCH  10  14
ENDBRANCH   6  10
ENDBRANCH   5   8
BRANCH   5  18
ATOM     18  CB  GLN A   2       5.976  -3.025  21.883  0.00  0.00    +0.041 C 
BRANCH  18  19
ATOM     19  CG  GLN A   2       5.310  -4.364  22.200  0.00  0.00    +0.098 C 
BRANCH  19  20
ATOM     20  CD  GLN A   2       5.949  -5.545  21.504  0.00  0.00    +0.211 C 
ATOM     21  OE1 GLN A   2       5.970  -5.655  20.283  0.00  0.00    -0.276 OA
ATOM     22  NE2 GLN A   2       6.446  -6.528  22.304  0.00  0.00    -0.329 N 
ATOM     23 HE21 GLN A   2       6.229  -6.596  23.288  0.00  0.00    +0.145 HD
ATOM     24 HE22 GLN A   2       6.792  -7.359  21.840  0.00  0.00    +0.145 HD
ENDBRANCH  19  20
ENDBRANCH  18  19
ENDBRANCH   5  18
ENDBRANCH   1   5
BRANCH   3  25
ATOM     25  CA  ASN A   3       7.854   0.284  20.320  0.00  0.00    +0.168 C 
BRANCH  25  26
ATOM     26  C   ASN A   3       7.312   1.316  21.325  0.00  0.00    +0.234 C 
ATOM     27  N   ASN A   4       8.254   1.928  22.113  0.00  0.00    -0.304 N 
ATOM     28  H   ASN A   4       9.248   1.765  21.959  0.00  0.00    +0.149 HD
ATOM     29  O   ASN A   3       6.112   1.587  21.410  0.00  0.00    -0.274 OA
BRANCH  27  30
ATOM     30  CA  ASN A   4       7.902   2.934  23.109  0.00  0.00    +0.145 C 
BRANCH  30  31
ATOM     31  C   ASN A   4       7.607   4.223  22.354  0.00  0.00    +0.245 C 
ATOM     32  O   ASN A   4       6.526   4.807  22.411  0.00  0.00    -0.299 OA
ENDBRANCH  30  31
BRANCH  30  33
ATOM     33  CB  ASN A   4       9.021   3.205  24.107  0.00  0.00    +0.125 C 
BRANCH  33  34
ATOM     34  CG  ASN A   4      10.406   2.769  23.687  0.00  0.00    +0.213 C 
ATOM     35  ND2 ASN A   4      11.189   3.688  23.058  0.00  0.00    -0.329 N 
ATOM     36 HD21 ASN A   4      11.221   4.632  23.437  0.00  0.00    +0.145 HD
ATOM     37 HD22 ASN A   4      12.117   3.343  22.828  0.00  0.00    +0.145 HD
ATOM     38  OD1 ASN A   4      10.792   1.611  23.818  0.00  0.00    -0.276 OA
ENDBRANCH  33  34
ENDBRANCH  30  33
ENDBRANCH  27  30
ENDBRANCH  25  26
BRANCH  25  39
ATOM     39  CB  ASN A   3       7.289   0.586  18.938  0.00  0.00    +0.127 C 
BRANCH  39  40
ATOM     40  CG  ASN A   3       5.992  -0.097  18.570  0.00  0.00    +0.213 C 
ATOM     41  OD1 ASN A   3       5.967  -1.250  18.145  0.00  0.00    -0.276 OA
ATOM     42  ND2 ASN A   3       4.824   0.547  18.839  0.00  0.00    -0.329 N 
ATOM     43 HD21 ASN A   3       4.005   0.038  18.526  0.00  0.00    +0.145 HD
ATOM     44 HD22 ASN A   3       4.756   1.547  18.649  0.00  0.00    +0.145 HD
ENDBRANCH  39  40
ENDBRANCH  25  39
ENDBRANCH   3  25
TORSDOF 17
ENDMDL
