REMARK  Name = LQNN-mmff94.pdb
REMARK  19 active torsions:
REMARK  status: ('A' for Active; 'I' for Inactive)
REMARK    1  A    between atoms: _1  and  _2
REMARK    2  A    between atoms: _2  and  _3
REMARK    3  A    between atoms: _2  and  _5
REMARK    4  A    between atoms: _5  and  _6
REMARK    5  A    between atoms: _6  and  _7
REMARK    6  A    between atoms: _6  and  _8
REMARK    7  A    between atoms: _20  and  _21
REMARK    8  A    between atoms: _21  and  _22
REMARK    9  A    between atoms: _21  and  _24
REMARK   10  A    between atoms: _24  and  _25
REMARK   11  A    between atoms: _25  and  _26
REMARK   12  A    between atoms: _37  and  _38
REMARK   13  A    between atoms: _38  and  _39
REMARK   14  A    between atoms: _38  and  _41
REMARK   15  A    between atoms: _41  and  _42
REMARK   16  A    between atoms: _51  and  _52
REMARK   17  A    between atoms: _52  and  _53
REMARK   18  A    between atoms: _52  and  _55
REMARK   19  A    between atoms: _55  and  _56
REMARK                            x       y       z     vdW  Elec       q    Type
REMARK                         _______ _______ _______ _____ _____    ______ ____
ROOT
ATOM      1  C   GLN A   2       5.317   1.609  -1.154  0.00  0.00    +0.234 C 
ATOM      2  O   GLN A   2       4.692   2.476  -1.767  0.00  0.00    -0.274 OA
ATOM      3  N   ASN A   3       6.457   1.891  -0.445  0.00  0.00    -0.302 N 
ATOM      4  H   ASN A   3       6.972   1.142   0.015  0.00  0.00    +0.150 HD
ENDROOT
BRANCH   1   5
ATOM      5  CA  GLN A   2       4.901   0.128  -1.157  0.00  0.00    +0.159 C 
BRANCH   5   8
ATOM      6  C   LEU A   1       2.719  -0.989  -0.784  0.00  0.00    +0.230 C 
ATOM      7  O   LEU A   1       3.253  -2.019  -0.377  0.00  0.00    -0.274 OA
ATOM      8  N   GLN A   2       3.443   0.101  -1.204  0.00  0.00    -0.303 N 
ATOM      9  H   GLN A   2       2.970   0.917  -1.582  0.00  0.00    +0.149 HD
BRANCH   6  10
ATOM     10  CA  LEU A   1       1.184  -0.811  -0.855  0.00  0.00    +0.138 C 
BRANCH  10  11
ATOM     11  N   LEU A   1       0.538  -2.137  -0.811  0.00  0.00    -0.320 NA
ATOM     12  H1  LEU A   1       0.944  -2.713  -1.551  0.00  0.00    +0.119 HD
ATOM     13  H2  LEU A   1       0.851  -2.601   0.047  0.00  0.00    +0.119 HD
ENDBRANCH  10  11
BRANCH  10  14
ATOM     14  CB  LEU A   1       0.721   0.079   0.310  0.00  0.00    +0.031 C 
BRANCH  14  15
ATOM     15  CG  LEU A   1      -0.802   0.300   0.413  0.00  0.00    -0.015 C 
ATOM     16  CD2 LEU A   1      -1.120   1.133   1.658  0.00  0.00    +0.007 C 
ATOM     17  CD1 LEU A   1      -1.375   0.985  -0.828  0.00  0.00    +0.007 C 
ENDBRANCH  14  15
ENDBRANCH  10  14
ENDBRANCH   6  10
ENDBRANCH   5   8
BRANCH   5  18
ATOM     18  CB  GLN A   2       5.506  -0.617  -2.357  0.00  0.00    +0.041 C 
BRANCH  18  19
ATOM     19  CG  GLN A   2       7.035  -0.621  -2.354  0.00  0.00    +0.098 C 
BRANCH  19  20
ATOM     20  CD  GLN A   2       7.645  -1.684  -3.240  0.00  0.00    +0.211 C 
ATOM     21  OE1 GLN A   2       8.596  -2.370  -2.883  0.00  0.00    -0.276 OA
ATOM     22  NE2 GLN A   2       7.129  -1.801  -4.494  0.00  0.00    -0.329 N 
ATOM     23 HE21 GLN A   2       6.528  -1.102  -4.907  0.00  0.00    +0.145 HD
ATOM     24 HE22 GLN A   2       7.594  -2.449  -5.118  0.00  0.00    +0.145 HD
ENDBRANCH  19  20
ENDBRANCH  18  19
ENDBRANCH   5  18
ENDBRANCH   1   5
BRANCH   3  25
ATOM     25  CA  ASN A   3       7.108   3.200  -0.472  0.00  0.00    +0.168 C 
BRANCH  25  26
ATOM     26  C   ASN A   3       8.620   2.915  -0.487  0.00  0.00    +0.234 C 
ATOM     27  N   ASN A   4       9.413   3.943  -0.930  0.00  0.00    -0.304 N 
ATOM     28  H   ASN A   4       9.014   4.857  -1.139  0.00  0.00    +0.149 HD
ATOM     29  O   ASN A   3       9.092   1.839  -0.114  0.00  0.00    -0.274 OA
BRANCH  27  30
ATOM     30  CA  ASN A   4      10.867   3.833  -0.997  0.00  0.00    +0.145 C 
BRANCH  30  31
ATOM     31  C   ASN A   4      11.431   5.220  -0.721  0.00  0.00    +0.245 C 
ATOM     32  O   ASN A   4      10.745   6.241  -0.722  0.00  0.00    -0.299 OA
ENDBRANCH  30  31
BRANCH  30  33
ATOM     33  CB  ASN A   4      11.370   3.370  -2.358  0.00  0.00    +0.125 C 
BRANCH  33  34
ATOM     34  CG  ASN A   4      10.896   2.009  -2.814  0.00  0.00    +0.213 C 
ATOM     35  ND2 ASN A   4      11.044   0.970  -1.946  0.00  0.00    -0.329 N 
ATOM     36 HD21 ASN A   4      10.791   1.119  -0.971  0.00  0.00    +0.145 HD
ATOM     37 HD22 ASN A   4      10.680   0.089  -2.299  0.00  0.00    +0.145 HD
ATOM     38  OD1 ASN A   4      10.477   1.812  -3.951  0.00  0.00    -0.276 OA
ENDBRANCH  33  34
ENDBRANCH  30  33
ENDBRANCH  27  30
ENDBRANCH  25  26
BRANCH  25  39
ATOM     39  CB  ASN A   3       6.771   4.057   0.741  0.00  0.00    +0.127 C 
BRANCH  39  40
ATOM     40  CG  ASN A   3       5.335   4.509   0.876  0.00  0.00    +0.213 C 
ATOM     41  OD1 ASN A   3       4.823   4.713   1.974  0.00  0.00    -0.276 OA
ATOM     42  ND2 ASN A   3       4.644   4.812  -0.256  0.00  0.00    -0.329 N 
ATOM     43 HD21 ASN A   3       3.679   5.068  -0.080  0.00  0.00    +0.145 HD
ATOM     44 HD22 ASN A   3       4.743   4.208  -1.072  0.00  0.00    +0.145 HD
ENDBRANCH  39  40
ENDBRANCH  25  39
ENDBRANCH   3  25
TORSDOF 17
