REMARK  Name = LQSA-mmff94.pdb
REMARK  18 active torsions:
REMARK  status: ('A' for Active; 'I' for Inactive)
REMARK    1  A    between atoms: _1  and  _2
REMARK    2  A    between atoms: _2  and  _3
REMARK    3  A    between atoms: _2  and  _5
REMARK    4  A    between atoms: _5  and  _6
REMARK    5  A    between atoms: _6  and  _7
REMARK    6  A    between atoms: _6  and  _8
REMARK    7  A    between atoms: _20  and  _21
REMARK    8  A    between atoms: _21  and  _22
REMARK    9  A    between atoms: _21  and  _24
REMARK   10  A    between atoms: _24  and  _25
REMARK   11  A    between atoms: _25  and  _26
REMARK   12  A    between atoms: _37  and  _38
REMARK   13  A    between atoms: _38  and  _39
REMARK   14  A    between atoms: _38  and  _41
REMARK   15  A    between atoms: _41  and  _42
REMARK   16  A    between atoms: _48  and  _49
REMARK   17  A    between atoms: _49  and  _50
REMARK   18  A    between atoms: _49  and  _52
REMARK                            x       y       z     vdW  Elec       q    Type
REMARK                         _______ _______ _______ _____ _____    ______ ____
ROOT
ATOM      1  CA  GLN A   2       4.898   0.116  -1.146  0.00  0.00    +0.159 C 
ENDROOT
BRANCH   1   3
ATOM      2  C   LEU A   1       2.719  -1.003  -0.723  0.00  0.00    +0.230 C 
ATOM      3  N   GLN A   2       3.437   0.107  -1.096  0.00  0.00    -0.303 N 
ATOM      4  H   GLN A   2       2.960   0.955  -1.391  0.00  0.00    +0.149 HD
ATOM      5  O   LEU A   1       3.258  -2.056  -0.388  0.00  0.00    -0.274 OA
BRANCH   2   6
ATOM      6  CA  LEU A   1       1.183  -0.828  -0.779  0.00  0.00    +0.138 C 
BRANCH   6   7
ATOM      7  N   LEU A   1       0.539  -2.155  -0.731  0.00  0.00    -0.320 NA
ATOM      8  H1  LEU A   1       0.949  -2.731  -1.470  0.00  0.00    +0.119 HD
ATOM      9  H2  LEU A   1       0.853  -2.617   0.127  0.00  0.00    +0.119 HD
ENDBRANCH   6   7
BRANCH   6  10
ATOM     10  CB  LEU A   1       0.714   0.063   0.382  0.00  0.00    +0.031 C 
BRANCH  10  11
ATOM     11  CG  LEU A   1      -0.811   0.290   0.465  0.00  0.00    -0.015 C 
ATOM     12  CD2 LEU A   1      -1.142   1.127   1.703  0.00  0.00    +0.007 C 
ATOM     13  CD1 LEU A   1      -1.366   0.975  -0.785  0.00  0.00    +0.007 C 
ENDBRANCH  10  11
ENDBRANCH   6  10
ENDBRANCH   2   6
ENDBRANCH   1   3
BRANCH   1  14
ATOM     14  C   GLN A   2       5.321   1.597  -1.125  0.00  0.00    +0.234 C 
ATOM     15  O   GLN A   2       4.583   2.497  -1.527  0.00  0.00    -0.274 OA
ATOM     16  N   SER A   3       6.588   1.840  -0.662  0.00  0.00    -0.301 N 
ATOM     17  H   SER A   3       7.209   1.079  -0.393  0.00  0.00    +0.150 HD
BRANCH  16  18
ATOM     18  CA  SER A   3       7.209   3.166  -0.731  0.00  0.00    +0.184 C 
BRANCH  18  19
ATOM     19  C   SER A   3       8.733   2.954  -0.707  0.00  0.00    +0.236 C 
ATOM     20  O   SER A   3       9.225   1.842  -0.508  0.00  0.00    -0.274 OA
ATOM     21  N   ALA A   4       9.496   4.063  -0.973  0.00  0.00    -0.305 N 
ATOM     22  H   ALA A   4       9.071   4.983  -1.066  0.00  0.00    +0.149 HD
BRANCH  21  23
ATOM     23  CA  ALA A   4      10.952   4.027  -0.949  0.00  0.00    +0.133 C 
ATOM     24  CB  ALA A   4      11.528   3.394  -2.207  0.00  0.00    +0.035 C 
BRANCH  23  25
ATOM     25  C   ALA A   4      11.455   5.458  -0.827  0.00  0.00    +0.245 C 
ATOM     26  O   ALA A   4      10.720   6.442  -0.891  0.00  0.00    -0.299 OA
ENDBRANCH  23  25
ENDBRANCH  21  23
ENDBRANCH  18  19
BRANCH  18  27
ATOM     27  CB  SER A   3       6.738   4.080   0.404  0.00  0.00    +0.187 C 
BRANCH  27  28
ATOM     28  OG  SER A   3       6.926   3.471   1.681  0.00  0.00    -0.393 OA
ATOM     29  H   SER A   3       6.432   2.631   1.665  0.00  0.00    +0.209 HD
ENDBRANCH  27  28
ENDBRANCH  18  27
ENDBRANCH  16  18
ENDBRANCH   1  14
BRANCH   1  30
ATOM     30  CB  GLN A   2       5.391  -0.596  -2.415  0.00  0.00    +0.041 C 
BRANCH  30  31
ATOM     31  CG  GLN A   2       6.910  -0.756  -2.482  0.00  0.00    +0.098 C 
BRANCH  31  32
ATOM     32  CD  GLN A   2       7.359  -1.822  -3.459  0.00  0.00    +0.211 C 
ATOM     33  OE1 GLN A   2       8.235  -2.637  -3.193  0.00  0.00    -0.276 OA
ATOM     34  NE2 GLN A   2       6.802  -1.788  -4.700  0.00  0.00    -0.329 N 
ATOM     35 HE21 GLN A   2       6.011  -1.212  -4.947  0.00  0.00    +0.145 HD
ATOM     36 HE22 GLN A   2       7.083  -2.515  -5.346  0.00  0.00    +0.145 HD
ENDBRANCH  31  32
ENDBRANCH  30  31
ENDBRANCH   1  30
TORSDOF 15
