MODEL 1
REMARK VINA RESULT:      -6.5      0.000      0.000
REMARK  Name = LQSA-mmff94.pdb
REMARK  18 active torsions:
REMARK  status: ('A' for Active; 'I' for Inactive)
REMARK    1  A    between atoms: _1  and  _2
REMARK    2  A    between atoms: _2  and  _3
REMARK    3  A    between atoms: _2  and  _5
REMARK    4  A    between atoms: _5  and  _6
REMARK    5  A    between atoms: _6  and  _7
REMARK    6  A    between atoms: _6  and  _8
REMARK    7  A    between atoms: _20  and  _21
REMARK    8  A    between atoms: _21  and  _22
REMARK    9  A    between atoms: _21  and  _24
REMARK   10  A    between atoms: _24  and  _25
REMARK   11  A    between atoms: _25  and  _26
REMARK   12  A    between atoms: _37  and  _38
REMARK   13  A    between atoms: _38  and  _39
REMARK   14  A    between atoms: _38  and  _41
REMARK   15  A    between atoms: _41  and  _42
REMARK   16  A    between atoms: _48  and  _49
REMARK   17  A    between atoms: _49  and  _50
REMARK   18  A    between atoms: _49  and  _52
REMARK                            x       y       z     vdW  Elec       q    Type
REMARK                         _______ _______ _______ _____ _____    ______ ____
ROOT
ATOM      1  CA  GLN A   2       9.260  -3.788  24.354  0.00  0.00    +0.159 C 
ENDROOT
BRANCH   1   3
ATOM      2  C   LEU A   1       9.721  -1.365  24.042  0.00  0.00    +0.230 C 
ATOM      3  N   GLN A   2       9.035  -2.378  24.668  0.00  0.00    -0.303 N 
ATOM      4  H   GLN A   2       8.369  -2.170  25.407  0.00  0.00    +0.149 HD
ATOM      5  O   LEU A   1      10.555  -1.577  23.164  0.00  0.00    -0.274 OA
BRANCH   2   6
ATOM      6  CA  LEU A   1       9.376   0.056  24.545  0.00  0.00    +0.138 C 
BRANCH   6   7
ATOM      7  N   LEU A   1       8.848  -0.028  25.921  0.00  0.00    -0.320 NA
ATOM      8  H1  LEU A   1       9.399  -0.725  26.428  0.00  0.00    +0.119 HD
ATOM      9  H2  LEU A   1       9.086   0.848  26.395  0.00  0.00    +0.119 HD
ENDBRANCH   6   7
BRANCH   6  10
ATOM     10  CB  LEU A   1      10.622   0.953  24.479  0.00  0.00    +0.031 C 
BRANCH  10  11
ATOM     11  CG  LEU A   1      10.462   2.245  23.650  0.00  0.00    -0.015 C 
ATOM     12  CD2 LEU A   1      10.267   1.890  22.173  0.00  0.00    +0.007 C 
ATOM     13  CD1 LEU A   1       9.293   3.106  24.133  0.00  0.00    +0.007 C 
ENDBRANCH  10  11
ENDBRANCH   6  10
ENDBRANCH   2   6
ENDBRANCH   1   3
BRANCH   1  14
ATOM     14  C   GLN A   2       8.043  -4.245  23.528  0.00  0.00    +0.234 C 
ATOM     15  O   GLN A   2       7.824  -5.431  23.282  0.00  0.00    -0.274 OA
ATOM     16  N   SER A   3       7.241  -3.238  23.056  0.00  0.00    -0.301 N 
ATOM     17  H   SER A   3       7.471  -2.259  23.215  0.00  0.00    +0.150 HD
BRANCH  16  18
ATOM     18  CA  SER A   3       6.142  -3.484  22.117  0.00  0.00    +0.184 C 
BRANCH  18  19
ATOM     19  C   SER A   3       6.070  -2.268  21.177  0.00  0.00    +0.236 C 
ATOM     20  O   SER A   3       5.458  -2.316  20.109  0.00  0.00    -0.274 OA
ATOM     21  N   ALA A   4       6.679  -1.124  21.629  0.00  0.00    -0.305 N 
ATOM     22  H   ALA A   4       7.235  -1.127  22.481  0.00  0.00    +0.149 HD
BRANCH  21  23
ATOM     23  CA  ALA A   4       6.726   0.096  20.835  0.00  0.00    +0.133 C 
ATOM     24  CB  ALA A   4       6.886   1.336  21.702  0.00  0.00    +0.035 C 
BRANCH  23  25
ATOM     25  C   ALA A   4       7.907  -0.011  19.881  0.00  0.00    +0.245 C 
ATOM     26  O   ALA A   4       7.796   0.038  18.657  0.00  0.00    -0.299 OA
ENDBRANCH  23  25
ENDBRANCH  21  23
ENDBRANCH  18  19
BRANCH  18  27
ATOM     27  CB  SER A   3       4.815  -3.732  22.840  0.00  0.00    +0.187 C 
BRANCH  27  28
ATOM     28  OG  SER A   3       4.752  -5.049  23.386  0.00  0.00    -0.393 OA
ATOM     29  H   SER A   3       4.484  -5.640  22.660  0.00  0.00    +0.209 HD
ENDBRANCH  27  28
ENDBRANCH  18  27
ENDBRANCH  16  18
ENDBRANCH   1  14
BRANCH   1  30
ATOM     30  CB  GLN A   2       9.405  -4.603  25.648  0.00  0.00    +0.041 C 
BRANCH  30  31
ATOM     31  CG  GLN A   2       8.390  -4.231  26.729  0.00  0.00    +0.098 C 
BRANCH  31  32
ATOM     32  CD  GLN A   2       7.367  -5.316  26.992  0.00  0.00    +0.211 C 
ATOM     33  OE1 GLN A   2       7.395  -6.024  27.992  0.00  0.00    -0.276 OA
ATOM     34  NE2 GLN A   2       6.445  -5.536  26.016  0.00  0.00    -0.329 N 
ATOM     35 HE21 GLN A   2       6.307  -4.927  25.223  0.00  0.00    +0.145 HD
ATOM     36 HE22 GLN A   2       5.745  -6.244  26.201  0.00  0.00    +0.145 HD
ENDBRANCH  31  32
ENDBRANCH  30  31
ENDBRANCH   1  30
TORSDOF 15
ENDMDL
MODEL 2
REMARK VINA RESULT:      -6.4      1.879      5.383
REMARK  Name = LQSA-mmff94.pdb
REMARK  18 active torsions:
REMARK  status: ('A' for Active; 'I' for Inactive)
REMARK    1  A    between atoms: _1  and  _2
REMARK    2  A    between atoms: _2  and  _3
REMARK    3  A    between atoms: _2  and  _5
REMARK    4  A    between atoms: _5  and  _6
REMARK    5  A    between atoms: _6  and  _7
REMARK    6  A    between atoms: _6  and  _8
REMARK    7  A    between atoms: _20  and  _21
REMARK    8  A    between atoms: _21  and  _22
REMARK    9  A    between atoms: _21  and  _24
REMARK   10  A    between atoms: _24  and  _25
REMARK   11  A    between atoms: _25  and  _26
REMARK   12  A    between atoms: _37  and  _38
REMARK   13  A    between atoms: _38  and  _39
REMARK   14  A    between atoms: _38  and  _41
REMARK   15  A    between atoms: _41  and  _42
REMARK   16  A    between atoms: _48  and  _49
REMARK   17  A    between atoms: _49  and  _50
REMARK   18  A    between atoms: _49  and  _52
REMARK                            x       y       z     vdW  Elec       q    Type
REMARK                         _______ _______ _______ _____ _____    ______ ____
ROOT
ATOM      1  CA  GLN A   2       9.507  -1.983  23.875  0.00  0.00    +0.159 C 
ENDROOT
BRANCH   1   3
ATOM      2  C   LEU A   1       8.440  -1.154  21.789  0.00  0.00    +0.230 C 
ATOM      3  N   GLN A   2       8.370  -1.862  22.963  0.00  0.00    -0.303 N 
ATOM      4  H   GLN A   2       7.498  -2.296  23.254  0.00  0.00    +0.149 HD
ATOM      5  O   LEU A   1       9.468  -0.590  21.417  0.00  0.00    -0.274 OA
BRANCH   2   6
ATOM      6  CA  LEU A   1       7.119  -1.104  20.985  0.00  0.00    +0.138 C 
BRANCH   6   7
ATOM      7  N   LEU A   1       6.054  -1.775  21.755  0.00  0.00    -0.320 NA
ATOM      8  H1  LEU A   1       5.284  -1.112  21.873  0.00  0.00    +0.119 HD
ATOM      9  H2  LEU A   1       5.650  -2.498  21.153  0.00  0.00    +0.119 HD
ENDBRANCH   6   7
BRANCH   6  10
ATOM     10  CB  LEU A   1       6.749   0.355  20.674  0.00  0.00    +0.031 C 
BRANCH  10  11
ATOM     11  CG  LEU A   1       6.360   0.638  19.207  0.00  0.00    -0.015 C 
ATOM     12  CD2 LEU A   1       6.161  -0.683  18.461  0.00  0.00    +0.007 C 
ATOM     13  CD1 LEU A   1       5.094   1.490  19.095  0.00  0.00    +0.007 C 
ENDBRANCH  10  11
ENDBRANCH   6  10
ENDBRANCH   2   6
ENDBRANCH   1   3
BRANCH   1  14
ATOM     14  C   GLN A   2       9.378  -3.365  24.543  0.00  0.00    +0.234 C 
ATOM     15  O   GLN A   2      10.269  -4.213  24.476  0.00  0.00    -0.274 OA
ATOM     16  N   SER A   3       8.191  -3.599  25.187  0.00  0.00    -0.301 N 
ATOM     17  H   SER A   3       7.440  -2.911  25.180  0.00  0.00    +0.150 HD
BRANCH  16  18
ATOM     18  CA  SER A   3       7.837  -4.914  25.729  0.00  0.00    +0.184 C 
BRANCH  18  19
ATOM     19  C   SER A   3       6.617  -5.416  24.938  0.00  0.00    +0.236 C 
ATOM     20  O   SER A   3       5.689  -6.007  25.493  0.00  0.00    -0.274 OA
ATOM     21  N   ALA A   4       6.607  -5.117  23.599  0.00  0.00    -0.305 N 
ATOM     22  H   ALA A   4       7.414  -4.689  23.150  0.00  0.00    +0.149 HD
BRANCH  21  23
ATOM     23  CA  ALA A   4       5.537  -5.558  22.713  0.00  0.00    +0.133 C 
ATOM     24  CB  ALA A   4       4.293  -4.693  22.847  0.00  0.00    +0.035 C 
BRANCH  23  25
ATOM     25  C   ALA A   4       6.053  -5.485  21.283  0.00  0.00    +0.245 C 
ATOM     26  O   ALA A   4       5.868  -4.519  20.545  0.00  0.00    -0.299 OA
ENDBRANCH  23  25
ENDBRANCH  21  23
ENDBRANCH  18  19
BRANCH  18  27
ATOM     27  CB  SER A   3       7.563  -4.859  27.235  0.00  0.00    +0.187 C 
BRANCH  27  28
ATOM     28  OG  SER A   3       7.582  -6.160  27.820  0.00  0.00    -0.393 OA
ATOM     29  H   SER A   3       6.795  -6.628  27.485  0.00  0.00    +0.209 HD
ENDBRANCH  27  28
ENDBRANCH  18  27
ENDBRANCH  16  18
ENDBRANCH   1  14
BRANCH   1  30
ATOM     30  CB  GLN A   2       9.480  -0.848  24.911  0.00  0.00    +0.041 C 
BRANCH  30  31
ATOM     31  CG  GLN A   2      10.577   0.198  24.708  0.00  0.00    +0.098 C 
BRANCH  31  32
ATOM     32  CD  GLN A   2      10.042   1.562  24.326  0.00  0.00    +0.211 C 
ATOM     33  OE1 GLN A   2      10.571   2.265  23.473  0.00  0.00    -0.276 OA
ATOM     34  NE2 GLN A   2       8.979   2.024  25.039  0.00  0.00    -0.329 N 
ATOM     35 HE21 GLN A   2       8.441   1.459  25.679  0.00  0.00    +0.145 HD
ATOM     36 HE22 GLN A   2       8.606   2.925  24.768  0.00  0.00    +0.145 HD
ENDBRANCH  31  32
ENDBRANCH  30  31
ENDBRANCH   1  30
TORSDOF 15
ENDMDL
MODEL 3
REMARK VINA RESULT:      -6.3      2.034      6.360
REMARK  Name = LQSA-mmff94.pdb
REMARK  18 active torsions:
REMARK  status: ('A' for Active; 'I' for Inactive)
REMARK    1  A    between atoms: _1  and  _2
REMARK    2  A    between atoms: _2  and  _3
REMARK    3  A    between atoms: _2  and  _5
REMARK    4  A    between atoms: _5  and  _6
REMARK    5  A    between atoms: _6  and  _7
REMARK    6  A    between atoms: _6  and  _8
REMARK    7  A    between atoms: _20  and  _21
REMARK    8  A    between atoms: _21  and  _22
REMARK    9  A    between atoms: _21  and  _24
REMARK   10  A    between atoms: _24  and  _25
REMARK   11  A    between atoms: _25  and  _26
REMARK   12  A    between atoms: _37  and  _38
REMARK   13  A    between atoms: _38  and  _39
REMARK   14  A    between atoms: _38  and  _41
REMARK   15  A    between atoms: _41  and  _42
REMARK   16  A    between atoms: _48  and  _49
REMARK   17  A    between atoms: _49  and  _50
REMARK   18  A    between atoms: _49  and  _52
REMARK                            x       y       z     vdW  Elec       q    Type
REMARK                         _______ _______ _______ _____ _____    ______ ____
ROOT
ATOM      1  CA  GLN A   2       6.304  -1.459  21.094  0.00  0.00    +0.159 C 
ENDROOT
BRANCH   1   3
ATOM      2  C   LEU A   1       8.197  -0.583  22.446  0.00  0.00    +0.230 C 
ATOM      3  N   GLN A   2       7.719  -1.147  21.288  0.00  0.00    -0.303 N 
ATOM      4  H   GLN A   2       8.344  -1.328  20.507  0.00  0.00    +0.149 HD
ATOM      5  O   LEU A   1       7.470  -0.321  23.402  0.00  0.00    -0.274 OA
BRANCH   2   6
ATOM      6  CA  LEU A   1       9.715  -0.285  22.441  0.00  0.00    +0.138 C 
BRANCH   6   7
ATOM      7  N   LEU A   1      10.410  -1.308  21.637  0.00  0.00    -0.320 NA
ATOM      8  H1  LEU A   1       9.878  -1.445  20.774  0.00  0.00    +0.119 HD
ATOM      9  H2  LEU A   1      11.287  -0.895  21.307  0.00  0.00    +0.119 HD
ENDBRANCH   6   7
BRANCH   6  10
ATOM     10  CB  LEU A   1       9.971   1.127  21.891  0.00  0.00    +0.031 C 
BRANCH  10  11
ATOM     11  CG  LEU A   1      10.234   2.213  22.957  0.00  0.00    -0.015 C 
ATOM     12  CD2 LEU A   1       8.987   3.082  23.128  0.00  0.00    +0.007 C 
ATOM     13  CD1 LEU A   1      10.638   1.617  24.307  0.00  0.00    +0.007 C 
ENDBRANCH  10  11
ENDBRANCH   6  10
ENDBRANCH   2   6
ENDBRANCH   1   3
BRANCH   1  14
ATOM     14  C   GLN A   2       6.142  -2.952  21.434  0.00  0.00    +0.234 C 
ATOM     15  O   GLN A   2       5.583  -3.743  20.673  0.00  0.00    -0.274 OA
ATOM     16  N   SER A   3       6.629  -3.333  22.657  0.00  0.00    -0.301 N 
ATOM     17  H   SER A   3       7.032  -2.655  23.302  0.00  0.00    +0.150 HD
BRANCH  16  18
ATOM     18  CA  SER A   3       6.409  -4.673  23.209  0.00  0.00    +0.184 C 
BRANCH  18  19
ATOM     19  C   SER A   3       5.958  -4.493  24.669  0.00  0.00    +0.236 C 
ATOM     20  O   SER A   3       5.504  -3.422  25.075  0.00  0.00    -0.274 OA
ATOM     21  N   ALA A   4       6.044  -5.608  25.464  0.00  0.00    -0.305 N 
ATOM     22  H   ALA A   4       6.486  -6.461  25.127  0.00  0.00    +0.149 HD
BRANCH  21  23
ATOM     23  CA  ALA A   4       5.690  -5.583  26.877  0.00  0.00    +0.133 C 
ATOM     24  CB  ALA A   4       4.874  -6.802  27.282  0.00  0.00    +0.035 C 
BRANCH  23  25
ATOM     25  C   ALA A   4       6.980  -5.547  27.683  0.00  0.00    +0.245 C 
ATOM     26  O   ALA A   4       8.055  -5.163  27.226  0.00  0.00    -0.299 OA
ENDBRANCH  23  25
ENDBRANCH  21  23
ENDBRANCH  18  19
BRANCH  18  27
ATOM     27  CB  SER A   3       7.658  -5.552  23.097  0.00  0.00    +0.187 C 
BRANCH  27  28
ATOM     28  OG  SER A   3       8.622  -5.224  24.097  0.00  0.00    -0.393 OA
ATOM     29  H   SER A   3       8.354  -5.694  24.908  0.00  0.00    +0.209 HD
ENDBRANCH  27  28
ENDBRANCH  18  27
ENDBRANCH  16  18
ENDBRANCH   1  14
BRANCH   1  30
ATOM     30  CB  GLN A   2       5.888  -1.160  19.645  0.00  0.00    +0.041 C 
BRANCH  30  31
ATOM     31  CG  GLN A   2       6.746  -0.092  18.965  0.00  0.00    +0.098 C 
BRANCH  31  32
ATOM     32  CD  GLN A   2       5.937   0.913  18.172  0.00  0.00    +0.211 C 
ATOM     33  OE1 GLN A   2       6.318   1.372  17.102  0.00  0.00    -0.276 OA
ATOM     34  NE2 GLN A   2       4.786   1.360  18.745  0.00  0.00    -0.329 N 
ATOM     35 HE21 GLN A   2       4.371   0.951  19.569  0.00  0.00    +0.145 HD
ATOM     36 HE22 GLN A   2       4.232   2.013  18.205  0.00  0.00    +0.145 HD
ENDBRANCH  31  32
ENDBRANCH  30  31
ENDBRANCH   1  30
TORSDOF 15
ENDMDL
MODEL 4
REMARK VINA RESULT:      -6.3      1.988      5.889
REMARK  Name = LQSA-mmff94.pdb
REMARK  18 active torsions:
REMARK  status: ('A' for Active; 'I' for Inactive)
REMARK    1  A    between atoms: _1  and  _2
REMARK    2  A    between atoms: _2  and  _3
REMARK    3  A    between atoms: _2  and  _5
REMARK    4  A    between atoms: _5  and  _6
REMARK    5  A    between atoms: _6  and  _7
REMARK    6  A    between atoms: _6  and  _8
REMARK    7  A    between atoms: _20  and  _21
REMARK    8  A    between atoms: _21  and  _22
REMARK    9  A    between atoms: _21  and  _24
REMARK   10  A    between atoms: _24  and  _25
REMARK   11  A    between atoms: _25  and  _26
REMARK   12  A    between atoms: _37  and  _38
REMARK   13  A    between atoms: _38  and  _39
REMARK   14  A    between atoms: _38  and  _41
REMARK   15  A    between atoms: _41  and  _42
REMARK   16  A    between atoms: _48  and  _49
REMARK   17  A    between atoms: _49  and  _50
REMARK   18  A    between atoms: _49  and  _52
REMARK                            x       y       z     vdW  Elec       q    Type
REMARK                         _______ _______ _______ _____ _____    ______ ____
ROOT
ATOM      1  CA  GLN A   2       9.249  -0.915  23.607  0.00  0.00    +0.159 C 
ENDROOT
BRANCH   1   3
ATOM      2  C   LEU A   1       8.286  -0.468  21.360  0.00  0.00    +0.230 C 
ATOM      3  N   GLN A   2       8.171  -0.994  22.623  0.00  0.00    -0.303 N 
ATOM      4  H   GLN A   2       7.301  -1.424  22.926  0.00  0.00    +0.149 HD
ATOM      5  O   LEU A   1       9.310   0.086  20.966  0.00  0.00    -0.274 OA
BRANCH   2   6
ATOM      6  CA  LEU A   1       7.020  -0.611  20.482  0.00  0.00    +0.138 C 
BRANCH   6   7
ATOM      7  N   LEU A   1       6.016  -1.419  21.202  0.00  0.00    -0.320 NA
ATOM      8  H1  LEU A   1       5.756  -0.913  22.052  0.00  0.00    +0.119 HD
ATOM      9  H2  LEU A   1       5.156  -1.403  20.648  0.00  0.00    +0.119 HD
ENDBRANCH   6   7
BRANCH   6  10
ATOM     10  CB  LEU A   1       6.468   0.779  20.128  0.00  0.00    +0.031 C 
BRANCH  10  11
ATOM     11  CG  LEU A   1       5.434   0.806  18.982  0.00  0.00    -0.015 C 
ATOM     12  CD2 LEU A   1       4.298   1.770  19.334  0.00  0.00    +0.007 C 
ATOM     13  CD1 LEU A   1       6.057   1.208  17.644  0.00  0.00    +0.007 C 
ENDBRANCH  10  11
ENDBRANCH   6  10
ENDBRANCH   2   6
ENDBRANCH   1   3
BRANCH   1  14
ATOM     14  C   GLN A   2       9.481  -2.353  24.109  0.00  0.00    +0.234 C 
ATOM     15  O   GLN A   2      10.450  -3.024  23.755  0.00  0.00    -0.274 OA
ATOM     16  N   SER A   3       8.515  -2.845  24.948  0.00  0.00    -0.301 N 
ATOM     17  H   SER A   3       7.687  -2.300  25.181  0.00  0.00    +0.150 HD
BRANCH  16  18
ATOM     18  CA  SER A   3       8.491  -4.245  25.383  0.00  0.00    +0.184 C 
BRANCH  18  19
ATOM     19  C   SER A   3       7.653  -5.024  24.354  0.00  0.00    +0.236 C 
ATOM     20  O   SER A   3       8.160  -5.495  23.335  0.00  0.00    -0.274 OA
ATOM     21  N   ALA A   4       6.330  -5.203  24.671  0.00  0.00    -0.305 N 
ATOM     22  H   ALA A   4       5.918  -4.747  25.483  0.00  0.00    +0.149 HD
BRANCH  21  23
ATOM     23  CA  ALA A   4       5.403  -5.887  23.779  0.00  0.00    +0.133 C 
ATOM     24  CB  ALA A   4       4.523  -6.880  24.523  0.00  0.00    +0.035 C 
BRANCH  23  25
ATOM     25  C   ALA A   4       4.528  -4.834  23.115  0.00  0.00    +0.245 C 
ATOM     26  O   ALA A   4       4.935  -4.066  22.245  0.00  0.00    -0.299 OA
ENDBRANCH  23  25
ENDBRANCH  21  23
ENDBRANCH  18  19
BRANCH  18  27
ATOM     27  CB  SER A   3       7.940  -4.395  26.804  0.00  0.00    +0.187 C 
BRANCH  27  28
ATOM     28  OG  SER A   3       8.025  -5.745  27.260  0.00  0.00    -0.393 OA
ATOM     29  H   SER A   3       8.157  -6.299  26.470  0.00  0.00    +0.209 HD
ENDBRANCH  27  28
ENDBRANCH  18  27
ENDBRANCH  16  18
ENDBRANCH   1  14
BRANCH   1  30
ATOM     30  CB  GLN A   2       8.855   0.029  24.754  0.00  0.00    +0.041 C 
BRANCH  30  31
ATOM     31  CG  GLN A   2       8.662   1.481  24.318  0.00  0.00    +0.098 C 
BRANCH  31  32
ATOM     32  CD  GLN A   2       9.928   2.124  23.793  0.00  0.00    +0.211 C 
ATOM     33  OE1 GLN A   2      11.047   1.758  24.134  0.00  0.00    -0.276 OA
ATOM     34  NE2 GLN A   2       9.774   3.202  22.977  0.00  0.00    -0.329 N 
ATOM     35 HE21 GLN A   2       8.891   3.489  22.583  0.00  0.00    +0.145 HD
ATOM     36 HE22 GLN A   2      10.619   3.618  22.606  0.00  0.00    +0.145 HD
ENDBRANCH  31  32
ENDBRANCH  30  31
ENDBRANCH   1  30
TORSDOF 15
ENDMDL
MODEL 5
REMARK VINA RESULT:      -6.3      1.945      5.799
REMARK  Name = LQSA-mmff94.pdb
REMARK  18 active torsions:
REMARK  status: ('A' for Active; 'I' for Inactive)
REMARK    1  A    between atoms: _1  and  _2
REMARK    2  A    between atoms: _2  and  _3
REMARK    3  A    between atoms: _2  and  _5
REMARK    4  A    between atoms: _5  and  _6
REMARK    5  A    between atoms: _6  and  _7
REMARK    6  A    between atoms: _6  and  _8
REMARK    7  A    between atoms: _20  and  _21
REMARK    8  A    between atoms: _21  and  _22
REMARK    9  A    between atoms: _21  and  _24
REMARK   10  A    between atoms: _24  and  _25
REMARK   11  A    between atoms: _25  and  _26
REMARK   12  A    between atoms: _37  and  _38
REMARK   13  A    between atoms: _38  and  _39
REMARK   14  A    between atoms: _38  and  _41
REMARK   15  A    between atoms: _41  and  _42
REMARK   16  A    between atoms: _48  and  _49
REMARK   17  A    between atoms: _49  and  _50
REMARK   18  A    between atoms: _49  and  _52
REMARK                            x       y       z     vdW  Elec       q    Type
REMARK                         _______ _______ _______ _____ _____    ______ ____
ROOT
ATOM      1  CA  GLN A   2       6.829  -0.838  21.410  0.00  0.00    +0.159 C 
ENDROOT
BRANCH   1   3
ATOM      2  C   LEU A   1       7.819  -0.396  23.646  0.00  0.00    +0.230 C 
ATOM      3  N   GLN A   2       7.900  -0.960  22.397  0.00  0.00    -0.303 N 
ATOM      4  H   GLN A   2       8.741  -1.454  22.107  0.00  0.00    +0.149 HD
ATOM      5  O   LEU A   1       6.833   0.233  24.024  0.00  0.00    -0.274 OA
BRANCH   2   6
ATOM      6  CA  LEU A   1       9.074  -0.596  24.529  0.00  0.00    +0.138 C 
BRANCH   6   7
ATOM      7  N   LEU A   1       9.179  -2.018  24.911  0.00  0.00    -0.320 NA
ATOM      8  H1  LEU A   1       8.793  -2.578  24.147  0.00  0.00    +0.119 HD
ATOM      9  H2  LEU A   1      10.173  -2.265  24.902  0.00  0.00    +0.119 HD
ENDBRANCH   6   7
BRANCH   6  10
ATOM     10  CB  LEU A   1      10.327  -0.126  23.773  0.00  0.00    +0.031 C 
BRANCH  10  11
ATOM     11  CG  LEU A   1      10.449   1.401  23.585  0.00  0.00    -0.015 C 
ATOM     12  CD2 LEU A   1      10.101   1.773  22.141  0.00  0.00    +0.007 C 
ATOM     13  CD1 LEU A   1       9.553   2.180  24.549  0.00  0.00    +0.007 C 
ENDBRANCH  10  11
ENDBRANCH   6  10
ENDBRANCH   2   6
ENDBRANCH   1   3
BRANCH   1  14
ATOM     14  C   GLN A   2       6.247  -2.253  21.227  0.00  0.00    +0.234 C 
ATOM     15  O   GLN A   2       5.519  -2.546  20.278  0.00  0.00    -0.274 OA
ATOM     16  N   SER A   3       6.567  -3.151  22.211  0.00  0.00    -0.301 N 
ATOM     17  H   SER A   3       7.118  -2.876  23.022  0.00  0.00    +0.150 HD
BRANCH  16  18
ATOM     18  CA  SER A   3       5.965  -4.486  22.282  0.00  0.00    +0.184 C 
BRANCH  18  19
ATOM     19  C   SER A   3       5.780  -4.820  23.773  0.00  0.00    +0.236 C 
ATOM     20  O   SER A   3       4.845  -5.521  24.164  0.00  0.00    -0.274 OA
ATOM     21  N   ALA A   4       6.745  -4.336  24.620  0.00  0.00    -0.305 N 
ATOM     22  H   ALA A   4       7.469  -3.704  24.284  0.00  0.00    +0.149 HD
BRANCH  21  23
ATOM     23  CA  ALA A   4       6.686  -4.539  26.061  0.00  0.00    +0.133 C 
ATOM     24  CB  ALA A   4       8.039  -4.926  26.639  0.00  0.00    +0.035 C 
BRANCH  23  25
ATOM     25  C   ALA A   4       6.216  -3.239  26.698  0.00  0.00    +0.245 C 
ATOM     26  O   ALA A   4       6.921  -2.235  26.788  0.00  0.00    -0.299 OA
ENDBRANCH  23  25
ENDBRANCH  21  23
ENDBRANCH  18  19
BRANCH  18  27
ATOM     27  CB  SER A   3       6.813  -5.537  21.559  0.00  0.00    +0.187 C 
BRANCH  27  28
ATOM     28  OG  SER A   3       6.450  -6.862  21.947  0.00  0.00    -0.393 OA
ATOM     29  H   SER A   3       6.980  -7.075  22.737  0.00  0.00    +0.209 HD
ENDBRANCH  27  28
ENDBRANCH  18  27
ENDBRANCH  16  18
ENDBRANCH   1  14
BRANCH   1  30
ATOM     30  CB  GLN A   2       7.383  -0.278  20.091  0.00  0.00    +0.041 C 
BRANCH  30  31
ATOM     31  CG  GLN A   2       6.543   0.855  19.500  0.00  0.00    +0.098 C 
BRANCH  31  32
ATOM     32  CD  GLN A   2       6.121   0.607  18.068  0.00  0.00    +0.211 C 
ATOM     33  OE1 GLN A   2       6.210   1.461  17.194  0.00  0.00    -0.276 OA
ATOM     34  NE2 GLN A   2       5.549  -0.598  17.799  0.00  0.00    -0.329 N 
ATOM     35 HE21 GLN A   2       5.539  -1.374  18.444  0.00  0.00    +0.145 HD
ATOM     36 HE22 GLN A   2       5.289  -0.775  16.837  0.00  0.00    +0.145 HD
ENDBRANCH  31  32
ENDBRANCH  30  31
ENDBRANCH   1  30
TORSDOF 15
ENDMDL
MODEL 6
REMARK VINA RESULT:      -6.2      2.321      6.187
REMARK  Name = LQSA-mmff94.pdb
REMARK  18 active torsions:
REMARK  status: ('A' for Active; 'I' for Inactive)
REMARK    1  A    between atoms: _1  and  _2
REMARK    2  A    between atoms: _2  and  _3
REMARK    3  A    between atoms: _2  and  _5
REMARK    4  A    between atoms: _5  and  _6
REMARK    5  A    between atoms: _6  and  _7
REMARK    6  A    between atoms: _6  and  _8
REMARK    7  A    between atoms: _20  and  _21
REMARK    8  A    between atoms: _21  and  _22
REMARK    9  A    between atoms: _21  and  _24
REMARK   10  A    between atoms: _24  and  _25
REMARK   11  A    between atoms: _25  and  _26
REMARK   12  A    between atoms: _37  and  _38
REMARK   13  A    between atoms: _38  and  _39
REMARK   14  A    between atoms: _38  and  _41
REMARK   15  A    between atoms: _41  and  _42
REMARK   16  A    between atoms: _48  and  _49
REMARK   17  A    between atoms: _49  and  _50
REMARK   18  A    between atoms: _49  and  _52
REMARK                            x       y       z     vdW  Elec       q    Type
REMARK                         _______ _______ _______ _____ _____    ______ ____
ROOT
ATOM      1  CA  GLN A   2       8.103  -3.457  22.843  0.00  0.00    +0.159 C 
ENDROOT
BRANCH   1   3
ATOM      2  C   LEU A   1       8.413  -5.097  24.684  0.00  0.00    +0.230 C 
ATOM      3  N   GLN A   2       7.968  -3.877  24.236  0.00  0.00    -0.303 N 
ATOM      4  H   GLN A   2       7.489  -3.239  24.866  0.00  0.00    +0.149 HD
ATOM      5  O   LEU A   1       8.971  -5.907  23.947  0.00  0.00    -0.274 OA
BRANCH   2   6
ATOM      6  CA  LEU A   1       8.138  -5.375  26.181  0.00  0.00    +0.138 C 
BRANCH   6   7
ATOM      7  N   LEU A   1       9.169  -4.708  26.999  0.00  0.00    -0.320 NA
ATOM      8  H1  LEU A   1      10.075  -5.116  26.758  0.00  0.00    +0.119 HD
ATOM      9  H2  LEU A   1       9.250  -3.744  26.663  0.00  0.00    +0.119 HD
ENDBRANCH   6   7
BRANCH   6  10
ATOM     10  CB  LEU A   1       6.728  -4.890  26.554  0.00  0.00    +0.031 C 
BRANCH  10  11
ATOM     11  CG  LEU A   1       5.579  -5.853  26.184  0.00  0.00    -0.015 C 
ATOM     12  CD2 LEU A   1       5.148  -6.642  27.422  0.00  0.00    +0.007 C 
ATOM     13  CD1 LEU A   1       4.374  -5.120  25.592  0.00  0.00    +0.007 C 
ENDBRANCH  10  11
ENDBRANCH   6  10
ENDBRANCH   2   6
ENDBRANCH   1   3
BRANCH   1  14
ATOM     14  C   GLN A   2       9.163  -2.339  22.829  0.00  0.00    +0.234 C 
ATOM     15  O   GLN A   2      10.344  -2.551  23.106  0.00  0.00    -0.274 OA
ATOM     16  N   SER A   3       8.694  -1.088  22.524  0.00  0.00    -0.301 N 
ATOM     17  H   SER A   3       7.704  -0.918  22.359  0.00  0.00    +0.150 HD
BRANCH  16  18
ATOM     18  CA  SER A   3       9.530   0.111  22.630  0.00  0.00    +0.184 C 
BRANCH  18  19
ATOM     19  C   SER A   3       9.407   0.623  24.076  0.00  0.00    +0.236 C 
ATOM     20  O   SER A   3      10.249   1.378  24.565  0.00  0.00    -0.274 OA
ATOM     21  N   ALA A   4       8.283   0.228  24.757  0.00  0.00    -0.305 N 
ATOM     22  H   ALA A   4       7.638  -0.450  24.357  0.00  0.00    +0.149 HD
BRANCH  21  23
ATOM     23  CA  ALA A   4       8.046   0.601  26.145  0.00  0.00    +0.133 C 
ATOM     24  CB  ALA A   4       6.617   1.069  26.374  0.00  0.00    +0.035 C 
BRANCH  23  25
ATOM     25  C   ALA A   4       8.324  -0.618  27.012  0.00  0.00    +0.245 C 
ATOM     26  O   ALA A   4       8.469  -1.752  26.560  0.00  0.00    -0.299 OA
ENDBRANCH  23  25
ENDBRANCH  21  23
ENDBRANCH  18  19
BRANCH  18  27
ATOM     27  CB  SER A   3       9.133   1.180  21.607  0.00  0.00    +0.187 C 
BRANCH  27  28
ATOM     28  OG  SER A   3      10.050   2.273  21.607  0.00  0.00    -0.393 OA
ATOM     29  H   SER A   3       9.929   2.739  20.759  0.00  0.00    +0.209 HD
ENDBRANCH  27  28
ENDBRANCH  18  27
ENDBRANCH  16  18
ENDBRANCH   1  14
BRANCH   1  30
ATOM     30  CB  GLN A   2       6.751  -2.962  22.304  0.00  0.00    +0.041 C 
BRANCH  30  31
ATOM     31  CG  GLN A   2       5.632  -3.999  22.399  0.00  0.00    +0.098 C 
BRANCH  31  32
ATOM     32  CD  GLN A   2       5.944  -5.288  21.670  0.00  0.00    +0.211 C 
ATOM     33  OE1 GLN A   2       6.023  -5.356  20.449  0.00  0.00    -0.276 OA
ATOM     34  NE2 GLN A   2       6.053  -6.411  22.431  0.00  0.00    -0.329 N 
ATOM     35 HE21 GLN A   2       6.098  -6.406  23.439  0.00  0.00    +0.145 HD
ATOM     36 HE22 GLN A   2       6.286  -7.269  21.948  0.00  0.00    +0.145 HD
ENDBRANCH  31  32
ENDBRANCH  30  31
ENDBRANCH   1  30
TORSDOF 15
ENDMDL
MODEL 7
REMARK VINA RESULT:      -6.2      2.053      4.935
REMARK  Name = LQSA-mmff94.pdb
REMARK  18 active torsions:
REMARK  status: ('A' for Active; 'I' for Inactive)
REMARK    1  A    between atoms: _1  and  _2
REMARK    2  A    between atoms: _2  and  _3
REMARK    3  A    between atoms: _2  and  _5
REMARK    4  A    between atoms: _5  and  _6
REMARK    5  A    between atoms: _6  and  _7
REMARK    6  A    between atoms: _6  and  _8
REMARK    7  A    between atoms: _20  and  _21
REMARK    8  A    between atoms: _21  and  _22
REMARK    9  A    between atoms: _21  and  _24
REMARK   10  A    between atoms: _24  and  _25
REMARK   11  A    between atoms: _25  and  _26
REMARK   12  A    between atoms: _37  and  _38
REMARK   13  A    between atoms: _38  and  _39
REMARK   14  A    between atoms: _38  and  _41
REMARK   15  A    between atoms: _41  and  _42
REMARK   16  A    between atoms: _48  and  _49
REMARK   17  A    between atoms: _49  and  _50
REMARK   18  A    between atoms: _49  and  _52
REMARK                            x       y       z     vdW  Elec       q    Type
REMARK                         _______ _______ _______ _____ _____    ______ ____
ROOT
ATOM      1  CA  GLN A   2       9.487  -0.541  24.066  0.00  0.00    +0.159 C 
ENDROOT
BRANCH   1   3
ATOM      2  C   LEU A   1       8.637   0.328  21.898  0.00  0.00    +0.230 C 
ATOM      3  N   GLN A   2       8.419  -0.309  23.094  0.00  0.00    -0.303 N 
ATOM      4  H   GLN A   2       7.483  -0.607  23.358  0.00  0.00    +0.149 HD
ATOM      5  O   LEU A   1       9.748   0.729  21.556  0.00  0.00    -0.274 OA
BRANCH   2   6
ATOM      6  CA  LEU A   1       7.372   0.520  21.028  0.00  0.00    +0.138 C 
BRANCH   6   7
ATOM      7  N   LEU A   1       6.796   1.853  21.292  0.00  0.00    -0.320 NA
ATOM      8  H1  LEU A   1       7.261   2.524  20.676  0.00  0.00    +0.119 HD
ATOM      9  H2  LEU A   1       5.833   1.845  20.944  0.00  0.00    +0.119 HD
ENDBRANCH   6   7
BRANCH   6  10
ATOM     10  CB  LEU A   1       7.726   0.348  19.542  0.00  0.00    +0.031 C 
BRANCH  10  11
ATOM     11  CG  LEU A   1       6.606  -0.247  18.662  0.00  0.00    -0.015 C 
ATOM     12  CD2 LEU A   1       5.730  -1.180  19.502  0.00  0.00    +0.007 C 
ATOM     13  CD1 LEU A   1       5.738   0.833  18.015  0.00  0.00    +0.007 C 
ENDBRANCH  10  11
ENDBRANCH   6  10
ENDBRANCH   2   6
ENDBRANCH   1   3
BRANCH   1  14
ATOM     14  C   GLN A   2       9.812  -2.045  23.997  0.00  0.00    +0.234 C 
ATOM     15  O   GLN A   2      10.493  -2.530  23.093  0.00  0.00    -0.274 OA
ATOM     16  N   SER A   3       9.263  -2.812  24.992  0.00  0.00    -0.301 N 
ATOM     17  H   SER A   3       8.650  -2.405  25.697  0.00  0.00    +0.150 HD
BRANCH  16  18
ATOM     18  CA  SER A   3       9.332  -4.276  24.985  0.00  0.00    +0.184 C 
BRANCH  18  19
ATOM     19  C   SER A   3       8.159  -4.780  24.126  0.00  0.00    +0.236 C 
ATOM     20  O   SER A   3       8.302  -5.697  23.316  0.00  0.00    -0.274 OA
ATOM     21  N   ALA A   4       6.945  -4.183  24.361  0.00  0.00    -0.305 N 
ATOM     22  H   ALA A   4       6.865  -3.383  24.984  0.00  0.00    +0.149 HD
BRANCH  21  23
ATOM     23  CA  ALA A   4       5.751  -4.528  23.600  0.00  0.00    +0.133 C 
ATOM     24  CB  ALA A   4       4.631  -5.036  24.496  0.00  0.00    +0.035 C 
BRANCH  23  25
ATOM     25  C   ALA A   4       5.285  -3.279  22.867  0.00  0.00    +0.245 C 
ATOM     26  O   ALA A   4       5.966  -2.259  22.766  0.00  0.00    -0.299 OA
ENDBRANCH  23  25
ENDBRANCH  21  23
ENDBRANCH  18  19
BRANCH  18  27
ATOM     27  CB  SER A   3       9.299  -4.859  26.401  0.00  0.00    +0.187 C 
BRANCH  27  28
ATOM     28  OG  SER A   3       8.288  -5.856  26.535  0.00  0.00    -0.393 OA
ATOM     29  H   SER A   3       7.867  -5.946  25.661  0.00  0.00    +0.209 HD
ENDBRANCH  27  28
ENDBRANCH  18  27
ENDBRANCH  16  18
ENDBRANCH   1  14
BRANCH   1  30
ATOM     30  CB  GLN A   2       9.027  -0.124  25.471  0.00  0.00    +0.041 C 
BRANCH  30  31
ATOM     31  CG  GLN A   2       7.577   0.355  25.529  0.00  0.00    +0.098 C 
BRANCH  31  32
ATOM     32  CD  GLN A   2       6.657  -0.599  26.261  0.00  0.00    +0.211 C 
ATOM     33  OE1 GLN A   2       6.721  -1.816  26.124  0.00  0.00    -0.276 OA
ATOM     34  NE2 GLN A   2       5.682  -0.041  27.029  0.00  0.00    -0.329 N 
ATOM     35 HE21 GLN A   2       5.640   0.940  27.261  0.00  0.00    +0.145 HD
ATOM     36 HE22 GLN A   2       5.083  -0.678  27.538  0.00  0.00    +0.145 HD
ENDBRANCH  31  32
ENDBRANCH  30  31
ENDBRANCH   1  30
TORSDOF 15
ENDMDL
MODEL 8
REMARK VINA RESULT:      -6.2      2.145      4.582
REMARK  Name = LQSA-mmff94.pdb
REMARK  18 active torsions:
REMARK  status: ('A' for Active; 'I' for Inactive)
REMARK    1  A    between atoms: _1  and  _2
REMARK    2  A    between atoms: _2  and  _3
REMARK    3  A    between atoms: _2  and  _5
REMARK    4  A    between atoms: _5  and  _6
REMARK    5  A    between atoms: _6  and  _7
REMARK    6  A    between atoms: _6  and  _8
REMARK    7  A    between atoms: _20  and  _21
REMARK    8  A    between atoms: _21  and  _22
REMARK    9  A    between atoms: _21  and  _24
REMARK   10  A    between atoms: _24  and  _25
REMARK   11  A    between atoms: _25  and  _26
REMARK   12  A    between atoms: _37  and  _38
REMARK   13  A    between atoms: _38  and  _39
REMARK   14  A    between atoms: _38  and  _41
REMARK   15  A    between atoms: _41  and  _42
REMARK   16  A    between atoms: _48  and  _49
REMARK   17  A    between atoms: _49  and  _50
REMARK   18  A    between atoms: _49  and  _52
REMARK                            x       y       z     vdW  Elec       q    Type
REMARK                         _______ _______ _______ _____ _____    ______ ____
ROOT
ATOM      1  CA  GLN A   2       8.426  -2.023  22.806  0.00  0.00    +0.159 C 
ENDROOT
BRANCH   1   3
ATOM      2  C   LEU A   1       9.451   0.230  22.579  0.00  0.00    +0.230 C 
ATOM      3  N   GLN A   2       8.338  -0.570  22.673  0.00  0.00    -0.303 N 
ATOM      4  H   GLN A   2       7.408  -0.160  22.694  0.00  0.00    +0.149 HD
ATOM      5  O   LEU A   1      10.593  -0.224  22.581  0.00  0.00    -0.274 OA
BRANCH   2   6
ATOM      6  CA  LEU A   1       9.152   1.746  22.493  0.00  0.00    +0.138 C 
BRANCH   6   7
ATOM      7  N   LEU A   1      10.252   2.420  21.777  0.00  0.00    -0.320 NA
ATOM      8  H1  LEU A   1      10.563   3.209  22.349  0.00  0.00    +0.119 HD
ATOM      9  H2  LEU A   1      11.059   1.789  21.791  0.00  0.00    +0.119 HD
ENDBRANCH   6   7
BRANCH   6  10
ATOM     10  CB  LEU A   1       7.804   1.975  21.791  0.00  0.00    +0.031 C 
BRANCH  10  11
ATOM     11  CG  LEU A   1       6.808   2.875  22.553  0.00  0.00    -0.015 C 
ATOM     12  CD2 LEU A   1       6.953   2.645  24.060  0.00  0.00    +0.007 C 
ATOM     13  CD1 LEU A   1       7.003   4.358  22.236  0.00  0.00    +0.007 C 
ENDBRANCH  10  11
ENDBRANCH   6  10
ENDBRANCH   2   6
ENDBRANCH   1   3
BRANCH   1  14
ATOM     14  C   GLN A   2       7.183  -2.596  22.099  0.00  0.00    +0.234 C 
ATOM     15  O   GLN A   2       6.386  -1.882  21.489  0.00  0.00    -0.274 OA
ATOM     16  N   SER A   3       7.005  -3.949  22.227  0.00  0.00    -0.301 N 
ATOM     17  H   SER A   3       7.639  -4.516  22.788  0.00  0.00    +0.150 HD
BRANCH  16  18
ATOM     18  CA  SER A   3       5.793  -4.630  21.763  0.00  0.00    +0.184 C 
BRANCH  18  19
ATOM     19  C   SER A   3       4.906  -4.867  22.997  0.00  0.00    +0.236 C 
ATOM     20  O   SER A   3       3.687  -4.693  22.956  0.00  0.00    -0.274 OA
ATOM     21  N   ALA A   4       5.549  -5.330  24.117  0.00  0.00    -0.305 N 
ATOM     22  H   ALA A   4       6.564  -5.400  24.149  0.00  0.00    +0.149 HD
BRANCH  21  23
ATOM     23  CA  ALA A   4       4.849  -5.565  25.373  0.00  0.00    +0.133 C 
ATOM     24  CB  ALA A   4       4.322  -6.988  25.475  0.00  0.00    +0.035 C 
BRANCH  23  25
ATOM     25  C   ALA A   4       5.826  -5.305  26.510  0.00  0.00    +0.245 C 
ATOM     26  O   ALA A   4       6.632  -6.141  26.916  0.00  0.00    -0.299 OA
ENDBRANCH  23  25
ENDBRANCH  21  23
ENDBRANCH  18  19
BRANCH  18  27
ATOM     27  CB  SER A   3       6.114  -5.934  21.027  0.00  0.00    +0.187 C 
BRANCH  27  28
ATOM     28  OG  SER A   3       6.579  -6.942  21.924  0.00  0.00    -0.393 OA
ATOM     29  H   SER A   3       6.401  -6.618  22.825  0.00  0.00    +0.209 HD
ENDBRANCH  27  28
ENDBRANCH  18  27
ENDBRANCH  16  18
ENDBRANCH   1  14
BRANCH   1  30
ATOM     30  CB  GLN A   2       8.467  -2.420  24.289  0.00  0.00    +0.041 C 
BRANCH  30  31
ATOM     31  CG  GLN A   2       9.632  -3.344  24.648  0.00  0.00    +0.098 C 
BRANCH  31  32
ATOM     32  CD  GLN A   2       9.212  -4.782  24.864  0.00  0.00    +0.211 C 
ATOM     33  OE1 GLN A   2       8.622  -5.435  24.011  0.00  0.00    -0.276 OA
ATOM     34  NE2 GLN A   2       9.444  -5.309  26.097  0.00  0.00    -0.329 N 
ATOM     35 HE21 GLN A   2      10.010  -4.862  26.803  0.00  0.00    +0.145 HD
ATOM     36 HE22 GLN A   2       9.187  -6.278  26.235  0.00  0.00    +0.145 HD
ENDBRANCH  31  32
ENDBRANCH  30  31
ENDBRANCH   1  30
TORSDOF 15
ENDMDL
MODEL 9
REMARK VINA RESULT:      -6.2      2.342      6.324
REMARK  Name = LQSA-mmff94.pdb
REMARK  18 active torsions:
REMARK  status: ('A' for Active; 'I' for Inactive)
REMARK    1  A    between atoms: _1  and  _2
REMARK    2  A    between atoms: _2  and  _3
REMARK    3  A    between atoms: _2  and  _5
REMARK    4  A    between atoms: _5  and  _6
REMARK    5  A    between atoms: _6  and  _7
REMARK    6  A    between atoms: _6  and  _8
REMARK    7  A    between atoms: _20  and  _21
REMARK    8  A    between atoms: _21  and  _22
REMARK    9  A    between atoms: _21  and  _24
REMARK   10  A    between atoms: _24  and  _25
REMARK   11  A    between atoms: _25  and  _26
REMARK   12  A    between atoms: _37  and  _38
REMARK   13  A    between atoms: _38  and  _39
REMARK   14  A    between atoms: _38  and  _41
REMARK   15  A    between atoms: _41  and  _42
REMARK   16  A    between atoms: _48  and  _49
REMARK   17  A    between atoms: _49  and  _50
REMARK   18  A    between atoms: _49  and  _52
REMARK                            x       y       z     vdW  Elec       q    Type
REMARK                         _______ _______ _______ _____ _____    ______ ____
ROOT
ATOM      1  CA  GLN A   2       7.445  -0.105  21.071  0.00  0.00    +0.159 C 
ENDROOT
BRANCH   1   3
ATOM      2  C   LEU A   1       7.160   2.268  21.753  0.00  0.00    +0.230 C 
ATOM      3  N   GLN A   2       7.950   1.152  21.620  0.00  0.00    -0.303 N 
ATOM      4  H   GLN A   2       8.936   1.185  21.867  0.00  0.00    +0.149 HD
ATOM      5  O   LEU A   1       5.972   2.277  21.438  0.00  0.00    -0.274 OA
BRANCH   2   6
ATOM      6  CA  LEU A   1       7.889   3.513  22.310  0.00  0.00    +0.138 C 
BRANCH   6   7
ATOM      7  N   LEU A   1       7.186   4.731  21.862  0.00  0.00    -0.320 NA
ATOM      8  H1  LEU A   1       6.562   4.470  21.095  0.00  0.00    +0.119 HD
ATOM      9  H2  LEU A   1       6.539   5.002  22.608  0.00  0.00    +0.119 HD
ENDBRANCH   6   7
BRANCH   6  10
ATOM     10  CB  LEU A   1       7.958   3.439  23.843  0.00  0.00    +0.031 C 
BRANCH  10  11
ATOM     11  CG  LEU A   1       9.306   2.956  24.421  0.00  0.00    -0.015 C 
ATOM     12  CD2 LEU A   1       9.194   1.486  24.834  0.00  0.00    +0.007 C 
ATOM     13  CD1 LEU A   1      10.458   3.127  23.429  0.00  0.00    +0.007 C 
ENDBRANCH  10  11
ENDBRANCH   6  10
ENDBRANCH   2   6
ENDBRANCH   1   3
BRANCH   1  14
ATOM     14  C   GLN A   2       8.303  -1.223  21.694  0.00  0.00    +0.234 C 
ATOM     15  O   GLN A   2       9.529  -1.250  21.582  0.00  0.00    -0.274 OA
ATOM     16  N   SER A   3       7.605  -2.203  22.351  0.00  0.00    -0.301 N 
ATOM     17  H   SER A   3       6.587  -2.200  22.380  0.00  0.00    +0.150 HD
BRANCH  16  18
ATOM     18  CA  SER A   3       8.247  -3.421  22.854  0.00  0.00    +0.184 C 
BRANCH  18  19
ATOM     19  C   SER A   3       7.181  -4.531  22.845  0.00  0.00    +0.236 C 
ATOM     20  O   SER A   3       6.975  -5.217  21.842  0.00  0.00    -0.274 OA
ATOM     21  N   ALA A   4       6.522  -4.739  24.030  0.00  0.00    -0.305 N 
ATOM     22  H   ALA A   4       6.660  -4.117  24.824  0.00  0.00    +0.149 HD
BRANCH  21  23
ATOM     23  CA  ALA A   4       5.462  -5.728  24.166  0.00  0.00    +0.133 C 
ATOM     24  CB  ALA A   4       5.319  -6.220  25.599  0.00  0.00    +0.035 C 
BRANCH  23  25
ATOM     25  C   ALA A   4       4.158  -5.082  23.721  0.00  0.00    +0.245 C 
ATOM     26  O   ALA A   4       3.511  -5.464  22.747  0.00  0.00    -0.299 OA
ENDBRANCH  23  25
ENDBRANCH  21  23
ENDBRANCH  18  19
BRANCH  18  27
ATOM     27  CB  SER A   3       8.852  -3.217  24.246  0.00  0.00    +0.187 C 
BRANCH  27  28
ATOM     28  OG  SER A   3       9.618  -4.350  24.657  0.00  0.00    -0.393 OA
ATOM     29  H   SER A   3      10.519  -4.217  24.311  0.00  0.00    +0.209 HD
ENDBRANCH  27  28
ENDBRANCH  18  27
ENDBRANCH  16  18
ENDBRANCH   1  14
BRANCH   1  30
ATOM     30  CB  GLN A   2       7.552  -0.098  19.538  0.00  0.00    +0.041 C 
BRANCH  30  31
ATOM     31  CG  GLN A   2       6.207  -0.242  18.826  0.00  0.00    +0.098 C 
BRANCH  31  32
ATOM     32  CD  GLN A   2       5.739   1.035  18.161  0.00  0.00    +0.211 C 
ATOM     33  OE1 GLN A   2       6.276   1.495  17.159  0.00  0.00    -0.276 OA
ATOM     34  NE2 GLN A   2       4.733   1.713  18.777  0.00  0.00    -0.329 N 
ATOM     35 HE21 GLN A   2       4.187   1.340  19.539  0.00  0.00    +0.145 HD
ATOM     36 HE22 GLN A   2       4.403   2.554  18.320  0.00  0.00    +0.145 HD
ENDBRANCH  31  32
ENDBRANCH  30  31
ENDBRANCH   1  30
TORSDOF 15
ENDMDL
MODEL 10
REMARK VINA RESULT:      -6.2      2.208      5.621
REMARK  Name = LQSA-mmff94.pdb
REMARK  18 active torsions:
REMARK  status: ('A' for Active; 'I' for Inactive)
REMARK    1  A    between atoms: _1  and  _2
REMARK    2  A    between atoms: _2  and  _3
REMARK    3  A    between atoms: _2  and  _5
REMARK    4  A    between atoms: _5  and  _6
REMARK    5  A    between atoms: _6  and  _7
REMARK    6  A    between atoms: _6  and  _8
REMARK    7  A    between atoms: _20  and  _21
REMARK    8  A    between atoms: _21  and  _22
REMARK    9  A    between atoms: _21  and  _24
REMARK   10  A    between atoms: _24  and  _25
REMARK   11  A    between atoms: _25  and  _26
REMARK   12  A    between atoms: _37  and  _38
REMARK   13  A    between atoms: _38  and  _39
REMARK   14  A    between atoms: _38  and  _41
REMARK   15  A    between atoms: _41  and  _42
REMARK   16  A    between atoms: _48  and  _49
REMARK   17  A    between atoms: _49  and  _50
REMARK   18  A    between atoms: _49  and  _52
REMARK                            x       y       z     vdW  Elec       q    Type
REMARK                         _______ _______ _______ _____ _____    ______ ____
ROOT
ATOM      1  CA  GLN A   2       8.232  -0.442  21.999  0.00  0.00    +0.159 C 
ENDROOT
BRANCH   1   3
ATOM      2  C   LEU A   1       8.392   1.517  23.521  0.00  0.00    +0.230 C 
ATOM      3  N   GLN A   2       8.787   0.855  22.384  0.00  0.00    -0.303 N 
ATOM      4  H   GLN A   2       9.459   1.276  21.749  0.00  0.00    +0.149 HD
ATOM      5  O   LEU A   1       7.561   1.055  24.300  0.00  0.00    -0.274 OA
BRANCH   2   6
ATOM      6  CA  LEU A   1       9.061   2.897  23.730  0.00  0.00    +0.138 C 
BRANCH   6   7
ATOM      7  N   LEU A   1      10.037   3.134  22.649  0.00  0.00    -0.320 NA
ATOM      8  H1  LEU A   1      10.876   2.588  22.857  0.00  0.00    +0.119 HD
ATOM      9  H2  LEU A   1       9.672   2.689  21.803  0.00  0.00    +0.119 HD
ENDBRANCH   6   7
BRANCH   6  10
ATOM     10  CB  LEU A   1       7.990   3.998  23.767  0.00  0.00    +0.031 C 
BRANCH  10  11
ATOM     11  CG  LEU A   1       7.324   4.317  22.411  0.00  0.00    -0.015 C 
ATOM     12  CD2 LEU A   1       5.871   3.837  22.423  0.00  0.00    +0.007 C 
ATOM     13  CD1 LEU A   1       7.372   5.809  22.077  0.00  0.00    +0.007 C 
ENDBRANCH  10  11
ENDBRANCH   6  10
ENDBRANCH   2   6
ENDBRANCH   1   3
BRANCH   1  14
ATOM     14  C   GLN A   2       9.026  -1.501  22.786  0.00  0.00    +0.234 C 
ATOM     15  O   GLN A   2      10.125  -1.911  22.412  0.00  0.00    -0.274 OA
ATOM     16  N   SER A   3       8.410  -1.982  23.912  0.00  0.00    -0.301 N 
ATOM     17  H   SER A   3       7.473  -1.679  24.174  0.00  0.00    +0.150 HD
BRANCH  16  18
ATOM     18  CA  SER A   3       8.946  -3.109  24.682  0.00  0.00    +0.184 C 
BRANCH  18  19
ATOM     19  C   SER A   3       8.375  -4.395  24.058  0.00  0.00    +0.236 C 
ATOM     20  O   SER A   3       9.001  -5.456  24.087  0.00  0.00    -0.274 OA
ATOM     21  N   ALA A   4       7.116  -4.293  23.523  0.00  0.00    -0.305 N 
ATOM     22  H   ALA A   4       6.648  -3.393  23.448  0.00  0.00    +0.149 HD
BRANCH  21  23
ATOM     23  CA  ALA A   4       6.460  -5.415  22.865  0.00  0.00    +0.133 C 
ATOM     24  CB  ALA A   4       5.257  -5.914  23.651  0.00  0.00    +0.035 C 
BRANCH  23  25
ATOM     25  C   ALA A   4       6.007  -4.952  21.487  0.00  0.00    +0.245 C 
ATOM     26  O   ALA A   4       5.819  -3.772  21.198  0.00  0.00    -0.299 OA
ENDBRANCH  23  25
ENDBRANCH  21  23
ENDBRANCH  18  19
BRANCH  18  27
ATOM     27  CB  SER A   3       8.612  -2.996  26.172  0.00  0.00    +0.187 C 
BRANCH  27  28
ATOM     28  OG  SER A   3       8.796  -4.240  26.847  0.00  0.00    -0.393 OA
ATOM     29  H   SER A   3       8.364  -4.921  26.299  0.00  0.00    +0.209 HD
ENDBRANCH  27  28
ENDBRANCH  18  27
ENDBRANCH  16  18
ENDBRANCH   1  14
BRANCH   1  30
ATOM     30  CB  GLN A   2       8.363  -0.647  20.482  0.00  0.00    +0.041 C 
BRANCH  30  31
ATOM     31  CG  GLN A   2       7.455   0.265  19.656  0.00  0.00    +0.098 C 
BRANCH  31  32
ATOM     32  CD  GLN A   2       6.350  -0.480  18.938  0.00  0.00    +0.211 C 
ATOM     33  OE1 GLN A   2       6.171  -0.394  17.729  0.00  0.00    -0.276 OA
ATOM     34  NE2 GLN A   2       5.493  -1.199  19.713  0.00  0.00    -0.329 N 
ATOM     35 HE21 GLN A   2       5.644  -1.390  20.692  0.00  0.00    +0.145 HD
ATOM     36 HE22 GLN A   2       4.768  -1.717  19.232  0.00  0.00    +0.145 HD
ENDBRANCH  31  32
ENDBRANCH  30  31
ENDBRANCH   1  30
TORSDOF 15
ENDMDL
MODEL 11
REMARK VINA RESULT:      -6.2      1.982      6.255
REMARK  Name = LQSA-mmff94.pdb
REMARK  18 active torsions:
REMARK  status: ('A' for Active; 'I' for Inactive)
REMARK    1  A    between atoms: _1  and  _2
REMARK    2  A    between atoms: _2  and  _3
REMARK    3  A    between atoms: _2  and  _5
REMARK    4  A    between atoms: _5  and  _6
REMARK    5  A    between atoms: _6  and  _7
REMARK    6  A    between atoms: _6  and  _8
REMARK    7  A    between atoms: _20  and  _21
REMARK    8  A    between atoms: _21  and  _22
REMARK    9  A    between atoms: _21  and  _24
REMARK   10  A    between atoms: _24  and  _25
REMARK   11  A    between atoms: _25  and  _26
REMARK   12  A    between atoms: _37  and  _38
REMARK   13  A    between atoms: _38  and  _39
REMARK   14  A    between atoms: _38  and  _41
REMARK   15  A    between atoms: _41  and  _42
REMARK   16  A    between atoms: _48  and  _49
REMARK   17  A    between atoms: _49  and  _50
REMARK   18  A    between atoms: _49  and  _52
REMARK                            x       y       z     vdW  Elec       q    Type
REMARK                         _______ _______ _______ _____ _____    ______ ____
ROOT
ATOM      1  CA  GLN A   2       7.096  -0.772  21.268  0.00  0.00    +0.159 C 
ENDROOT
BRANCH   1   3
ATOM      2  C   LEU A   1       8.405   0.064  23.208  0.00  0.00    +0.230 C 
ATOM      3  N   GLN A   2       8.151  -0.907  22.271  0.00  0.00    -0.303 N 
ATOM      4  H   GLN A   2       8.727  -1.743  22.224  0.00  0.00    +0.149 HD
ATOM      5  O   LEU A   1       7.751   1.103  23.277  0.00  0.00    -0.274 OA
BRANCH   2   6
ATOM      6  CA  LEU A   1       9.592  -0.243  24.151  0.00  0.00    +0.138 C 
BRANCH   6   7
ATOM      7  N   LEU A   1      10.607   0.821  24.021  0.00  0.00    -0.320 NA
ATOM      8  H1  LEU A   1      10.120   1.697  23.817  0.00  0.00    +0.119 HD
ATOM      9  H2  LEU A   1      11.001   0.983  24.952  0.00  0.00    +0.119 HD
ENDBRANCH   6   7
BRANCH   6  10
ATOM     10  CB  LEU A   1       9.093  -0.365  25.600  0.00  0.00    +0.031 C 
BRANCH  10  11
ATOM     11  CG  LEU A   1       8.590  -1.767  26.008  0.00  0.00    -0.015 C 
ATOM     12  CD2 LEU A   1       7.060  -1.770  26.066  0.00  0.00    +0.007 C 
ATOM     13  CD1 LEU A   1       9.072  -2.859  25.052  0.00  0.00    +0.007 C 
ENDBRANCH  10  11
ENDBRANCH   6  10
ENDBRANCH   2   6
ENDBRANCH   1   3
BRANCH   1  14
ATOM     14  C   GLN A   2       6.396  -2.142  21.191  0.00  0.00    +0.234 C 
ATOM     15  O   GLN A   2       5.528  -2.391  20.354  0.00  0.00    -0.274 OA
ATOM     16  N   SER A   3       6.779  -3.052  22.142  0.00  0.00    -0.301 N 
ATOM     17  H   SER A   3       7.452  -2.809  22.867  0.00  0.00    +0.150 HD
BRANCH  16  18
ATOM     18  CA  SER A   3       6.098  -4.338  22.318  0.00  0.00    +0.184 C 
BRANCH  18  19
ATOM     19  C   SER A   3       5.594  -4.387  23.771  0.00  0.00    +0.236 C 
ATOM     20  O   SER A   3       4.605  -3.746  24.131  0.00  0.00    -0.274 OA
ATOM     21  N   ALA A   4       6.277  -5.227  24.614  0.00  0.00    -0.305 N 
ATOM     22  H   ALA A   4       7.130  -5.693  24.313  0.00  0.00    +0.149 HD
BRANCH  21  23
ATOM     23  CA  ALA A   4       5.941  -5.351  26.026  0.00  0.00    +0.133 C 
ATOM     24  CB  ALA A   4       5.055  -6.558  26.297  0.00  0.00    +0.035 C 
BRANCH  23  25
ATOM     25  C   ALA A   4       7.239  -5.490  26.808  0.00  0.00    +0.245 C 
ATOM     26  O   ALA A   4       7.295  -5.928  27.956  0.00  0.00    -0.299 OA
ENDBRANCH  23  25
ENDBRANCH  21  23
ENDBRANCH  18  19
BRANCH  18  27
ATOM     27  CB  SER A   3       7.012  -5.521  21.987  0.00  0.00    +0.187 C 
BRANCH  27  28
ATOM     28  OG  SER A   3       6.296  -6.756  21.992  0.00  0.00    -0.393 OA
ATOM     29  H   SER A   3       6.012  -6.909  22.912  0.00  0.00    +0.209 HD
ENDBRANCH  27  28
ENDBRANCH  18  27
ENDBRANCH  16  18
ENDBRANCH   1  14
BRANCH   1  30
ATOM     30  CB  GLN A   2       7.698  -0.367  19.913  0.00  0.00    +0.041 C 
BRANCH  30  31
ATOM     31  CG  GLN A   2       7.029   0.853  19.281  0.00  0.00    +0.098 C 
BRANCH  31  32
ATOM     32  CD  GLN A   2       5.667   0.553  18.692  0.00  0.00    +0.211 C 
ATOM     33  OE1 GLN A   2       4.659   1.179  19.001  0.00  0.00    -0.276 OA
ATOM     34  NE2 GLN A   2       5.585  -0.515  17.852  0.00  0.00    -0.329 N 
ATOM     35 HE21 GLN A   2       6.387  -1.003  17.482  0.00  0.00    +0.145 HD
ATOM     36 HE22 GLN A   2       4.680  -0.701  17.438  0.00  0.00    +0.145 HD
ENDBRANCH  31  32
ENDBRANCH  30  31
ENDBRANCH   1  30
TORSDOF 15
ENDMDL
MODEL 12
REMARK VINA RESULT:      -6.1      2.828      7.242
REMARK  Name = LQSA-mmff94.pdb
REMARK  18 active torsions:
REMARK  status: ('A' for Active; 'I' for Inactive)
REMARK    1  A    between atoms: _1  and  _2
REMARK    2  A    between atoms: _2  and  _3
REMARK    3  A    between atoms: _2  and  _5
REMARK    4  A    between atoms: _5  and  _6
REMARK    5  A    between atoms: _6  and  _7
REMARK    6  A    between atoms: _6  and  _8
REMARK    7  A    between atoms: _20  and  _21
REMARK    8  A    between atoms: _21  and  _22
REMARK    9  A    between atoms: _21  and  _24
REMARK   10  A    between atoms: _24  and  _25
REMARK   11  A    between atoms: _25  and  _26
REMARK   12  A    between atoms: _37  and  _38
REMARK   13  A    between atoms: _38  and  _39
REMARK   14  A    between atoms: _38  and  _41
REMARK   15  A    between atoms: _41  and  _42
REMARK   16  A    between atoms: _48  and  _49
REMARK   17  A    between atoms: _49  and  _50
REMARK   18  A    between atoms: _49  and  _52
REMARK                            x       y       z     vdW  Elec       q    Type
REMARK                         _______ _______ _______ _____ _____    ______ ____
ROOT
ATOM      1  CA  GLN A   2       8.754   0.296  21.158  0.00  0.00    +0.159 C 
ENDROOT
BRANCH   1   3
ATOM      2  C   LEU A   1       9.269  -1.753  22.468  0.00  0.00    +0.230 C 
ATOM      3  N   GLN A   2       8.377  -0.792  22.058  0.00  0.00    -0.303 N 
ATOM      4  H   GLN A   2       7.403  -0.837  22.345  0.00  0.00    +0.149 HD
ATOM      5  O   LEU A   1      10.448  -1.751  22.119  0.00  0.00    -0.274 OA
BRANCH   2   6
ATOM      6  CA  LEU A   1       8.667  -2.847  23.382  0.00  0.00    +0.138 C 
BRANCH   6   7
ATOM      7  N   LEU A   1       8.153  -2.222  24.616  0.00  0.00    -0.320 NA
ATOM      8  H1  LEU A   1       8.484  -1.254  24.640  0.00  0.00    +0.119 HD
ATOM      9  H2  LEU A   1       7.140  -2.120  24.508  0.00  0.00    +0.119 HD
ENDBRANCH   6   7
BRANCH   6  10
ATOM     10  CB  LEU A   1       7.558  -3.603  22.634  0.00  0.00    +0.031 C 
BRANCH  10  11
ATOM     11  CG  LEU A   1       7.444  -5.106  22.969  0.00  0.00    -0.015 C 
ATOM     12  CD2 LEU A   1       6.345  -5.321  24.012  0.00  0.00    +0.007 C 
ATOM     13  CD1 LEU A   1       7.154  -5.957  21.731  0.00  0.00    +0.007 C 
ENDBRANCH  10  11
ENDBRANCH   6  10
ENDBRANCH   2   6
ENDBRANCH   1   3
BRANCH   1  14
ATOM     14  C   GLN A   2       9.279   1.434  22.053  0.00  0.00    +0.234 C 
ATOM     15  O   GLN A   2      10.400   1.922  21.905  0.00  0.00    -0.274 OA
ATOM     16  N   SER A   3       8.428   1.840  23.047  0.00  0.00    -0.301 N 
ATOM     17  H   SER A   3       7.531   1.383  23.196  0.00  0.00    +0.150 HD
BRANCH  16  18
ATOM     18  CA  SER A   3       8.832   2.790  24.088  0.00  0.00    +0.184 C 
BRANCH  18  19
ATOM     19  C   SER A   3       7.978   2.489  25.332  0.00  0.00    +0.236 C 
ATOM     20  O   SER A   3       7.660   3.378  26.125  0.00  0.00    -0.274 OA
ATOM     21  N   ALA A   4       7.553   1.192  25.467  0.00  0.00    -0.305 N 
ATOM     22  H   ALA A   4       7.884   0.463  24.839  0.00  0.00    +0.149 HD
BRANCH  21  23
ATOM     23  CA  ALA A   4       6.769   0.747  26.612  0.00  0.00    +0.133 C 
ATOM     24  CB  ALA A   4       5.550  -0.059  26.190  0.00  0.00    +0.035 C 
BRANCH  23  25
ATOM     25  C   ALA A   4       7.666  -0.114  27.489  0.00  0.00    +0.245 C 
ATOM     26  O   ALA A   4       8.676  -0.681  27.075  0.00  0.00    -0.299 OA
ENDBRANCH  23  25
ENDBRANCH  21  23
ENDBRANCH  18  19
BRANCH  18  27
ATOM     27  CB  SER A   3       8.685   4.243  23.627  0.00  0.00    +0.187 C 
BRANCH  27  28
ATOM     28  OG  SER A   3       9.919   4.765  23.135  0.00  0.00    -0.393 OA
ATOM     29  H   SER A   3       9.959   4.540  22.187  0.00  0.00    +0.209 HD
ENDBRANCH  27  28
ENDBRANCH  18  27
ENDBRANCH  16  18
ENDBRANCH   1  14
BRANCH   1  30
ATOM     30  CB  GLN A   2       7.541   0.742  20.327  0.00  0.00    +0.041 C 
BRANCH  30  31
ATOM     31  CG  GLN A   2       7.513   0.158  18.914  0.00  0.00    +0.098 C 
BRANCH  31  32
ATOM     32  CD  GLN A   2       6.188  -0.482  18.556  0.00  0.00    +0.211 C 
ATOM     33  OE1 GLN A   2       5.746  -0.492  17.413  0.00  0.00    -0.276 OA
ATOM     34  NE2 GLN A   2       5.452  -0.982  19.585  0.00  0.00    -0.329 N 
ATOM     35 HE21 GLN A   2       5.802  -1.094  20.525  0.00  0.00    +0.145 HD
ATOM     36 HE22 GLN A   2       4.578  -1.432  19.344  0.00  0.00    +0.145 HD
ENDBRANCH  31  32
ENDBRANCH  30  31
ENDBRANCH   1  30
TORSDOF 15
ENDMDL
MODEL 13
REMARK VINA RESULT:      -6.1      2.810      6.923
REMARK  Name = LQSA-mmff94.pdb
REMARK  18 active torsions:
REMARK  status: ('A' for Active; 'I' for Inactive)
REMARK    1  A    between atoms: _1  and  _2
REMARK    2  A    between atoms: _2  and  _3
REMARK    3  A    between atoms: _2  and  _5
REMARK    4  A    between atoms: _5  and  _6
REMARK    5  A    between atoms: _6  and  _7
REMARK    6  A    between atoms: _6  and  _8
REMARK    7  A    between atoms: _20  and  _21
REMARK    8  A    between atoms: _21  and  _22
REMARK    9  A    between atoms: _21  and  _24
REMARK   10  A    between atoms: _24  and  _25
REMARK   11  A    between atoms: _25  and  _26
REMARK   12  A    between atoms: _37  and  _38
REMARK   13  A    between atoms: _38  and  _39
REMARK   14  A    between atoms: _38  and  _41
REMARK   15  A    between atoms: _41  and  _42
REMARK   16  A    between atoms: _48  and  _49
REMARK   17  A    between atoms: _49  and  _50
REMARK   18  A    between atoms: _49  and  _52
REMARK                            x       y       z     vdW  Elec       q    Type
REMARK                         _______ _______ _______ _____ _____    ______ ____
ROOT
ATOM      1  CA  GLN A   2       9.628  -0.751  22.386  0.00  0.00    +0.159 C 
ENDROOT
BRANCH   1   3
ATOM      2  C   LEU A   1       8.929  -2.702  23.758  0.00  0.00    +0.230 C 
ATOM      3  N   GLN A   2       8.626  -1.526  23.115  0.00  0.00    -0.303 N 
ATOM      4  H   GLN A   2       7.671  -1.180  23.095  0.00  0.00    +0.149 HD
ATOM      5  O   LEU A   1      10.066  -3.169  23.780  0.00  0.00    -0.274 OA
BRANCH   2   6
ATOM      6  CA  LEU A   1       7.723  -3.398  24.433  0.00  0.00    +0.138 C 
BRANCH   6   7
ATOM      7  N   LEU A   1       6.496  -2.627  24.154  0.00  0.00    -0.320 NA
ATOM      8  H1  LEU A   1       6.634  -2.123  23.275  0.00  0.00    +0.119 HD
ATOM      9  H2  LEU A   1       5.758  -3.298  23.926  0.00  0.00    +0.119 HD
ENDBRANCH   6   7
BRANCH   6  10
ATOM     10  CB  LEU A   1       7.602  -4.844  23.925  0.00  0.00    +0.031 C 
BRANCH  10  11
ATOM     11  CG  LEU A   1       6.478  -5.089  22.895  0.00  0.00    -0.015 C 
ATOM     12  CD2 LEU A   1       7.073  -5.678  21.613  0.00  0.00    +0.007 C 
ATOM     13  CD1 LEU A   1       5.389  -6.019  23.433  0.00  0.00    +0.007 C 
ENDBRANCH  10  11
ENDBRANCH   6  10
ENDBRANCH   2   6
ENDBRANCH   1   3
BRANCH   1  14
ATOM     14  C   GLN A   2      10.143   0.319  23.367  0.00  0.00    +0.234 C 
ATOM     15  O   GLN A   2      10.540   0.037  24.498  0.00  0.00    -0.274 OA
ATOM     16  N   SER A   3      10.094   1.610  22.909  0.00  0.00    -0.301 N 
ATOM     17  H   SER A   3       9.704   1.833  21.995  0.00  0.00    +0.150 HD
BRANCH  16  18
ATOM     18  CA  SER A   3      10.386   2.761  23.768  0.00  0.00    +0.184 C 
BRANCH  18  19
ATOM     19  C   SER A   3       9.062   3.518  23.976  0.00  0.00    +0.236 C 
ATOM     20  O   SER A   3       8.657   3.809  25.102  0.00  0.00    -0.274 OA
ATOM     21  N   ALA A   4       8.399   3.889  22.833  0.00  0.00    -0.305 N 
ATOM     22  H   ALA A   4       8.716   3.578  21.917  0.00  0.00    +0.149 HD
BRANCH  21  23
ATOM     23  CA  ALA A   4       7.116   4.578  22.869  0.00  0.00    +0.133 C 
ATOM     24  CB  ALA A   4       7.133   5.859  22.049  0.00  0.00    +0.035 C 
BRANCH  23  25
ATOM     25  C   ALA A   4       6.061   3.634  22.311  0.00  0.00    +0.245 C 
ATOM     26  O   ALA A   4       6.328   2.651  21.622  0.00  0.00    -0.299 OA
ENDBRANCH  23  25
ENDBRANCH  21  23
ENDBRANCH  18  19
BRANCH  18  27
ATOM     27  CB  SER A   3      11.474   3.660  23.175  0.00  0.00    +0.187 C 
BRANCH  27  28
ATOM     28  OG  SER A   3      11.112   5.038  23.242  0.00  0.00    -0.393 OA
ATOM     29  H   SER A   3      11.495   5.388  24.067  0.00  0.00    +0.209 HD
ENDBRANCH  27  28
ENDBRANCH  18  27
ENDBRANCH  16  18
ENDBRANCH   1  14
BRANCH   1  30
ATOM     30  CB  GLN A   2       9.002  -0.117  21.134  0.00  0.00    +0.041 C 
BRANCH  30  31
ATOM     31  CG  GLN A   2       7.544  -0.515  20.904  0.00  0.00    +0.098 C 
BRANCH  31  32
ATOM     32  CD  GLN A   2       6.989  -0.025  19.583  0.00  0.00    +0.211 C 
ATOM     33  OE1 GLN A   2       7.683   0.107  18.582  0.00  0.00    -0.276 OA
ATOM     34  NE2 GLN A   2       5.682   0.351  19.571  0.00  0.00    -0.329 N 
ATOM     35 HE21 GLN A   2       5.038   0.174  20.327  0.00  0.00    +0.145 HD
ATOM     36 HE22 GLN A   2       5.303   0.656  18.683  0.00  0.00    +0.145 HD
ENDBRANCH  31  32
ENDBRANCH  30  31
ENDBRANCH   1  30
TORSDOF 15
ENDMDL
MODEL 14
REMARK VINA RESULT:      -6.1      2.359      6.297
REMARK  Name = LQSA-mmff94.pdb
REMARK  18 active torsions:
REMARK  status: ('A' for Active; 'I' for Inactive)
REMARK    1  A    between atoms: _1  and  _2
REMARK    2  A    between atoms: _2  and  _3
REMARK    3  A    between atoms: _2  and  _5
REMARK    4  A    between atoms: _5  and  _6
REMARK    5  A    between atoms: _6  and  _7
REMARK    6  A    between atoms: _6  and  _8
REMARK    7  A    between atoms: _20  and  _21
REMARK    8  A    between atoms: _21  and  _22
REMARK    9  A    between atoms: _21  and  _24
REMARK   10  A    between atoms: _24  and  _25
REMARK   11  A    between atoms: _25  and  _26
REMARK   12  A    between atoms: _37  and  _38
REMARK   13  A    between atoms: _38  and  _39
REMARK   14  A    between atoms: _38  and  _41
REMARK   15  A    between atoms: _41  and  _42
REMARK   16  A    between atoms: _48  and  _49
REMARK   17  A    between atoms: _49  and  _50
REMARK   18  A    between atoms: _49  and  _52
REMARK                            x       y       z     vdW  Elec       q    Type
REMARK                         _______ _______ _______ _____ _____    ______ ____
ROOT
ATOM      1  CA  GLN A   2       8.399  -2.656  22.721  0.00  0.00    +0.159 C 
ENDROOT
BRANCH   1   3
ATOM      2  C   LEU A   1       8.367  -4.740  24.075  0.00  0.00    +0.230 C 
ATOM      3  N   GLN A   2       8.689  -3.412  23.938  0.00  0.00    -0.303 N 
ATOM      4  H   GLN A   2       9.108  -2.900  24.710  0.00  0.00    +0.149 HD
ATOM      5  O   LEU A   1       7.833  -5.386  23.176  0.00  0.00    -0.274 OA
BRANCH   2   6
ATOM      6  CA  LEU A   1       8.711  -5.349  25.455  0.00  0.00    +0.138 C 
BRANCH   6   7
ATOM      7  N   LEU A   1      10.139  -5.722  25.481  0.00  0.00    -0.320 NA
ATOM      8  H1  LEU A   1      10.426  -5.802  26.459  0.00  0.00    +0.119 HD
ATOM      9  H2  LEU A   1      10.210  -6.684  25.137  0.00  0.00    +0.119 HD
ENDBRANCH   6   7
BRANCH   6  10
ATOM     10  CB  LEU A   1       8.375  -4.346  26.570  0.00  0.00    +0.031 C 
BRANCH  10  11
ATOM     11  CG  LEU A   1       6.932  -4.423  27.114  0.00  0.00    -0.015 C 
ATOM     12  CD2 LEU A   1       6.141  -3.196  26.652  0.00  0.00    +0.007 C 
ATOM     13  CD1 LEU A   1       6.212  -5.698  26.673  0.00  0.00    +0.007 C 
ENDBRANCH  10  11
ENDBRANCH   6  10
ENDBRANCH   2   6
ENDBRANCH   1   3
BRANCH   1  14
ATOM     14  C   GLN A   2       9.416  -1.499  22.680  0.00  0.00    +0.234 C 
ATOM     15  O   GLN A   2      10.593  -1.670  22.362  0.00  0.00    -0.274 OA
ATOM     16  N   SER A   3       8.928  -0.275  23.056  0.00  0.00    -0.301 N 
ATOM     17  H   SER A   3       7.968  -0.162  23.377  0.00  0.00    +0.150 HD
BRANCH  16  18
ATOM     18  CA  SER A   3       9.794   0.895  23.235  0.00  0.00    +0.184 C 
BRANCH  18  19
ATOM     19  C   SER A   3       9.101   1.819  24.251  0.00  0.00    +0.236 C 
ATOM     20  O   SER A   3       8.544   1.370  25.254  0.00  0.00    -0.274 OA
ATOM     21  N   ALA A   4       9.192   3.164  23.996  0.00  0.00    -0.305 N 
ATOM     22  H   ALA A   4       9.596   3.508  23.127  0.00  0.00    +0.149 HD
BRANCH  21  23
ATOM     23  CA  ALA A   4       8.555   4.161  24.847  0.00  0.00    +0.133 C 
ATOM     24  CB  ALA A   4       9.387   5.429  24.961  0.00  0.00    +0.035 C 
BRANCH  23  25
ATOM     25  C   ALA A   4       7.200   4.497  24.242  0.00  0.00    +0.245 C 
ATOM     26  O   ALA A   4       6.886   4.219  23.086  0.00  0.00    -0.299 OA
ENDBRANCH  23  25
ENDBRANCH  21  23
ENDBRANCH  18  19
BRANCH  18  27
ATOM     27  CB  SER A   3      10.077   1.607  21.909  0.00  0.00    +0.187 C 
BRANCH  27  28
ATOM     28  OG  SER A   3       8.899   2.213  21.376  0.00  0.00    -0.393 OA
ATOM     29  H   SER A   3       8.142   1.725  21.748  0.00  0.00    +0.209 HD
ENDBRANCH  27  28
ENDBRANCH  18  27
ENDBRANCH  16  18
ENDBRANCH   1  14
BRANCH   1  30
ATOM     30  CB  GLN A   2       6.953  -2.139  22.747  0.00  0.00    +0.041 C 
BRANCH  30  31
ATOM     31  CG  GLN A   2       6.218  -2.296  21.416  0.00  0.00    +0.098 C 
BRANCH  31  32
ATOM     32  CD  GLN A   2       6.280  -1.059  20.545  0.00  0.00    +0.211 C 
ATOM     33  OE1 GLN A   2       6.912  -0.057  20.862  0.00  0.00    -0.276 OA
ATOM     34  NE2 GLN A   2       5.524  -1.068  19.414  0.00  0.00    -0.329 N 
ATOM     35 HE21 GLN A   2       5.067  -1.890  19.049  0.00  0.00    +0.145 HD
ATOM     36 HE22 GLN A   2       5.585  -0.251  18.818  0.00  0.00    +0.145 HD
ENDBRANCH  31  32
ENDBRANCH  30  31
ENDBRANCH   1  30
TORSDOF 15
ENDMDL
MODEL 15
REMARK VINA RESULT:      -6.1      2.527      6.413
REMARK  Name = LQSA-mmff94.pdb
REMARK  18 active torsions:
REMARK  status: ('A' for Active; 'I' for Inactive)
REMARK    1  A    between atoms: _1  and  _2
REMARK    2  A    between atoms: _2  and  _3
REMARK    3  A    between atoms: _2  and  _5
REMARK    4  A    between atoms: _5  and  _6
REMARK    5  A    between atoms: _6  and  _7
REMARK    6  A    between atoms: _6  and  _8
REMARK    7  A    between atoms: _20  and  _21
REMARK    8  A    between atoms: _21  and  _22
REMARK    9  A    between atoms: _21  and  _24
REMARK   10  A    between atoms: _24  and  _25
REMARK   11  A    between atoms: _25  and  _26
REMARK   12  A    between atoms: _37  and  _38
REMARK   13  A    between atoms: _38  and  _39
REMARK   14  A    between atoms: _38  and  _41
REMARK   15  A    between atoms: _41  and  _42
REMARK   16  A    between atoms: _48  and  _49
REMARK   17  A    between atoms: _49  and  _50
REMARK   18  A    between atoms: _49  and  _52
REMARK                            x       y       z     vdW  Elec       q    Type
REMARK                         _______ _______ _______ _____ _____    ______ ____
ROOT
ATOM      1  CA  GLN A   2       7.518   0.381  21.120  0.00  0.00    +0.159 C 
ENDROOT
BRANCH   1   3
ATOM      2  C   LEU A   1       6.677   2.374  22.346  0.00  0.00    +0.230 C 
ATOM      3  N   GLN A   2       7.411   1.825  21.322  0.00  0.00    -0.303 N 
ATOM      4  H   GLN A   2       7.875   2.422  20.643  0.00  0.00    +0.149 HD
ATOM      5  O   LEU A   1       6.077   1.686  23.170  0.00  0.00    -0.274 OA
BRANCH   2   6
ATOM      6  CA  LEU A   1       6.648   3.920  22.364  0.00  0.00    +0.138 C 
BRANCH   6   7
ATOM      7  N   LEU A   1       5.249   4.383  22.286  0.00  0.00    -0.320 NA
ATOM      8  H1  LEU A   1       4.976   4.717  23.213  0.00  0.00    +0.119 HD
ATOM      9  H2  LEU A   1       5.239   5.235  21.718  0.00  0.00    +0.119 HD
ENDBRANCH   6   7
BRANCH   6  10
ATOM     10  CB  LEU A   1       7.340   4.443  23.633  0.00  0.00    +0.031 C 
BRANCH  10  11
ATOM     11  CG  LEU A   1       8.881   4.511  23.564  0.00  0.00    -0.015 C 
ATOM     12  CD2 LEU A   1       9.383   5.688  24.404  0.00  0.00    +0.007 C 
ATOM     13  CD1 LEU A   1       9.542   3.217  24.041  0.00  0.00    +0.007 C 
ENDBRANCH  10  11
ENDBRANCH   6  10
ENDBRANCH   2   6
ENDBRANCH   1   3
BRANCH   1  14
ATOM     14  C   GLN A   2       8.715  -0.085  21.969  0.00  0.00    +0.234 C 
ATOM     15  O   GLN A   2       9.875  -0.018  21.562  0.00  0.00    -0.274 OA
ATOM     16  N   SER A   3       8.398  -0.614  23.193  0.00  0.00    -0.301 N 
ATOM     17  H   SER A   3       7.429  -0.722  23.488  0.00  0.00    +0.150 HD
BRANCH  16  18
ATOM     18  CA  SER A   3       9.395  -1.257  24.054  0.00  0.00    +0.184 C 
BRANCH  18  19
ATOM     19  C   SER A   3       9.158  -2.775  23.965  0.00  0.00    +0.236 C 
ATOM     20  O   SER A   3      10.053  -3.582  24.222  0.00  0.00    -0.274 OA
ATOM     21  N   ALA A   4       7.884  -3.164  23.637  0.00  0.00    -0.305 N 
ATOM     22  H   ALA A   4       7.180  -2.482  23.362  0.00  0.00    +0.149 HD
BRANCH  21  23
ATOM     23  CA  ALA A   4       7.516  -4.565  23.479  0.00  0.00    +0.133 C 
ATOM     24  CB  ALA A   4       6.460  -4.995  24.486  0.00  0.00    +0.035 C 
BRANCH  23  25
ATOM     25  C   ALA A   4       6.977  -4.752  22.068  0.00  0.00    +0.245 C 
ATOM     26  O   ALA A   4       7.258  -5.716  21.358  0.00  0.00    -0.299 OA
ENDBRANCH  23  25
ENDBRANCH  21  23
ENDBRANCH  18  19
BRANCH  18  27
ATOM     27  CB  SER A   3       9.322  -0.747  25.496  0.00  0.00    +0.187 C 
BRANCH  27  28
ATOM     28  OG  SER A   3       8.714  -1.706  26.361  0.00  0.00    -0.393 OA
ATOM     29  H   SER A   3       9.154  -1.619  27.227  0.00  0.00    +0.209 HD
ENDBRANCH  27  28
ENDBRANCH  18  27
ENDBRANCH  16  18
ENDBRANCH   1  14
BRANCH   1  30
ATOM     30  CB  GLN A   2       7.722   0.067  19.630  0.00  0.00    +0.041 C 
BRANCH  30  31
ATOM     31  CG  GLN A   2       6.430  -0.278  18.889  0.00  0.00    +0.098 C 
BRANCH  31  32
ATOM     32  CD  GLN A   2       5.815   0.905  18.172  0.00  0.00    +0.211 C 
ATOM     33  OE1 GLN A   2       6.314   1.405  17.170  0.00  0.00    -0.276 OA
ATOM     34  NE2 GLN A   2       4.709   1.457  18.742  0.00  0.00    -0.329 N 
ATOM     35 HE21 GLN A   2       4.197   1.036  19.502  0.00  0.00    +0.145 HD
ATOM     36 HE22 GLN A   2       4.282   2.233  18.250  0.00  0.00    +0.145 HD
ENDBRANCH  31  32
ENDBRANCH  30  31
ENDBRANCH   1  30
TORSDOF 15
ENDMDL
MODEL 16
REMARK VINA RESULT:      -6.1      1.905      5.928
REMARK  Name = LQSA-mmff94.pdb
REMARK  18 active torsions:
REMARK  status: ('A' for Active; 'I' for Inactive)
REMARK    1  A    between atoms: _1  and  _2
REMARK    2  A    between atoms: _2  and  _3
REMARK    3  A    between atoms: _2  and  _5
REMARK    4  A    between atoms: _5  and  _6
REMARK    5  A    between atoms: _6  and  _7
REMARK    6  A    between atoms: _6  and  _8
REMARK    7  A    between atoms: _20  and  _21
REMARK    8  A    between atoms: _21  and  _22
REMARK    9  A    between atoms: _21  and  _24
REMARK   10  A    between atoms: _24  and  _25
REMARK   11  A    between atoms: _25  and  _26
REMARK   12  A    between atoms: _37  and  _38
REMARK   13  A    between atoms: _38  and  _39
REMARK   14  A    between atoms: _38  and  _41
REMARK   15  A    between atoms: _41  and  _42
REMARK   16  A    between atoms: _48  and  _49
REMARK   17  A    between atoms: _49  and  _50
REMARK   18  A    between atoms: _49  and  _52
REMARK                            x       y       z     vdW  Elec       q    Type
REMARK                         _______ _______ _______ _____ _____    ______ ____
ROOT
ATOM      1  CA  GLN A   2       7.774  -1.443  22.277  0.00  0.00    +0.159 C 
ENDROOT
BRANCH   1   3
ATOM      2  C   LEU A   1       7.891   0.507  23.814  0.00  0.00    +0.230 C 
ATOM      3  N   GLN A   2       8.384  -0.698  23.377  0.00  0.00    -0.303 N 
ATOM      4  H   GLN A   2       9.226  -1.091  23.790  0.00  0.00    +0.149 HD
ATOM      5  O   LEU A   1       6.893   1.030  23.321  0.00  0.00    -0.274 OA
BRANCH   2   6
ATOM      6  CA  LEU A   1       8.702   1.162  24.957  0.00  0.00    +0.138 C 
BRANCH   6   7
ATOM      7  N   LEU A   1       8.589   0.332  26.172  0.00  0.00    -0.320 NA
ATOM      8  H1  LEU A   1       8.239   0.926  26.927  0.00  0.00    +0.119 HD
ATOM      9  H2  LEU A   1       7.823  -0.330  26.020  0.00  0.00    +0.119 HD
ENDBRANCH   6   7
BRANCH   6  10
ATOM     10  CB  LEU A   1      10.169   1.330  24.529  0.00  0.00    +0.031 C 
BRANCH  10  11
ATOM     11  CG  LEU A   1      10.454   2.539  23.612  0.00  0.00    -0.015 C 
ATOM     12  CD2 LEU A   1      10.360   2.109  22.146  0.00  0.00    +0.007 C 
ATOM     13  CD1 LEU A   1       9.498   3.704  23.872  0.00  0.00    +0.007 C 
ENDBRANCH  10  11
ENDBRANCH   6  10
ENDBRANCH   2   6
ENDBRANCH   1   3
BRANCH   1  14
ATOM     14  C   GLN A   2       7.742  -2.918  22.720  0.00  0.00    +0.234 C 
ATOM     15  O   GLN A   2       7.165  -3.788  22.067  0.00  0.00    -0.274 OA
ATOM     16  N   SER A   3       8.368  -3.188  23.909  0.00  0.00    -0.301 N 
ATOM     17  H   SER A   3       8.785  -2.446  24.469  0.00  0.00    +0.150 HD
BRANCH  16  18
ATOM     18  CA  SER A   3       8.288  -4.500  24.559  0.00  0.00    +0.184 C 
BRANCH  18  19
ATOM     19  C   SER A   3       7.068  -4.468  25.496  0.00  0.00    +0.236 C 
ATOM     20  O   SER A   3       6.616  -3.406  25.928  0.00  0.00    -0.274 OA
ATOM     21  N   ALA A   4       6.492  -5.682  25.771  0.00  0.00    -0.305 N 
ATOM     22  H   ALA A   4       6.923  -6.550  25.460  0.00  0.00    +0.149 HD
BRANCH  21  23
ATOM     23  CA  ALA A   4       5.355  -5.816  26.671  0.00  0.00    +0.133 C 
ATOM     24  CB  ALA A   4       4.383  -6.890  26.206  0.00  0.00    +0.035 C 
BRANCH  23  25
ATOM     25  C   ALA A   4       5.887  -6.177  28.050  0.00  0.00    +0.245 C 
ATOM     26  O   ALA A   4       7.080  -6.143  28.346  0.00  0.00    -0.299 OA
ENDBRANCH  23  25
ENDBRANCH  21  23
ENDBRANCH  18  19
BRANCH  18  27
ATOM     27  CB  SER A   3       9.578  -4.848  25.307  0.00  0.00    +0.187 C 
BRANCH  27  28
ATOM     28  OG  SER A   3       9.346  -5.014  26.706  0.00  0.00    -0.393 OA
ATOM     29  H   SER A   3       9.242  -5.970  26.860  0.00  0.00    +0.209 HD
ENDBRANCH  27  28
ENDBRANCH  18  27
ENDBRANCH  16  18
ENDBRANCH   1  14
BRANCH   1  30
ATOM     30  CB  GLN A   2       8.592  -1.256  20.990  0.00  0.00    +0.041 C 
BRANCH  30  31
ATOM     31  CG  GLN A   2       8.098  -0.112  20.105  0.00  0.00    +0.098 C 
BRANCH  31  32
ATOM     32  CD  GLN A   2       6.591  -0.071  19.963  0.00  0.00    +0.211 C 
ATOM     33  OE1 GLN A   2       5.956  -0.947  19.388  0.00  0.00    -0.276 OA
ATOM     34  NE2 GLN A   2       5.962   1.041  20.433  0.00  0.00    -0.329 N 
ATOM     35 HE21 GLN A   2       6.411   1.744  21.001  0.00  0.00    +0.145 HD
ATOM     36 HE22 GLN A   2       4.953   1.058  20.361  0.00  0.00    +0.145 HD
ENDBRANCH  31  32
ENDBRANCH  30  31
ENDBRANCH   1  30
TORSDOF 15
ENDMDL
MODEL 17
REMARK VINA RESULT:      -6.1      2.647      6.731
REMARK  Name = LQSA-mmff94.pdb
REMARK  18 active torsions:
REMARK  status: ('A' for Active; 'I' for Inactive)
REMARK    1  A    between atoms: _1  and  _2
REMARK    2  A    between atoms: _2  and  _3
REMARK    3  A    between atoms: _2  and  _5
REMARK    4  A    between atoms: _5  and  _6
REMARK    5  A    between atoms: _6  and  _7
REMARK    6  A    between atoms: _6  and  _8
REMARK    7  A    between atoms: _20  and  _21
REMARK    8  A    between atoms: _21  and  _22
REMARK    9  A    between atoms: _21  and  _24
REMARK   10  A    between atoms: _24  and  _25
REMARK   11  A    between atoms: _25  and  _26
REMARK   12  A    between atoms: _37  and  _38
REMARK   13  A    between atoms: _38  and  _39
REMARK   14  A    between atoms: _38  and  _41
REMARK   15  A    between atoms: _41  and  _42
REMARK   16  A    between atoms: _48  and  _49
REMARK   17  A    between atoms: _49  and  _50
REMARK   18  A    between atoms: _49  and  _52
REMARK                            x       y       z     vdW  Elec       q    Type
REMARK                         _______ _______ _______ _____ _____    ______ ____
ROOT
ATOM      1  CA  GLN A   2       7.307   0.350  21.295  0.00  0.00    +0.159 C 
ENDROOT
BRANCH   1   3
ATOM      2  C   LEU A   1       6.836   2.727  21.847  0.00  0.00    +0.230 C 
ATOM      3  N   GLN A   2       7.720   1.683  21.730  0.00  0.00    -0.303 N 
ATOM      4  H   GLN A   2       8.712   1.824  21.907  0.00  0.00    +0.149 HD
ATOM      5  O   LEU A   1       5.635   2.605  21.614  0.00  0.00    -0.274 OA
BRANCH   2   6
ATOM      6  CA  LEU A   1       7.474   4.070  22.275  0.00  0.00    +0.138 C 
BRANCH   6   7
ATOM      7  N   LEU A   1       6.564   5.177  21.923  0.00  0.00    -0.320 NA
ATOM      8  H1  LEU A   1       6.257   5.621  22.791  0.00  0.00    +0.119 HD
ATOM      9  H2  LEU A   1       7.127   5.905  21.474  0.00  0.00    +0.119 HD
ENDBRANCH   6   7
BRANCH   6  10
ATOM     10  CB  LEU A   1       7.774   4.051  23.782  0.00  0.00    +0.031 C 
BRANCH  10  11
ATOM     11  CG  LEU A   1       9.232   4.381  24.169  0.00  0.00    -0.015 C 
ATOM     12  CD2 LEU A   1      10.175   3.334  23.571  0.00  0.00    +0.007 C 
ATOM     13  CD1 LEU A   1       9.653   5.778  23.711  0.00  0.00    +0.007 C 
ENDBRANCH  10  11
ENDBRANCH   6  10
ENDBRANCH   2   6
ENDBRANCH   1   3
BRANCH   1  14
ATOM     14  C   GLN A   2       8.091  -0.650  22.166  0.00  0.00    +0.234 C 
ATOM     15  O   GLN A   2       8.254  -1.824  21.833  0.00  0.00    -0.274 OA
ATOM     16  N   SER A   3       8.564  -0.152  23.352  0.00  0.00    -0.301 N 
ATOM     17  H   SER A   3       8.366   0.804  23.642  0.00  0.00    +0.150 HD
BRANCH  16  18
ATOM     18  CA  SER A   3       9.182  -1.005  24.372  0.00  0.00    +0.184 C 
BRANCH  18  19
ATOM     19  C   SER A   3       8.071  -1.899  24.949  0.00  0.00    +0.236 C 
ATOM     20  O   SER A   3       7.059  -1.417  25.462  0.00  0.00    -0.274 OA
ATOM     21  N   ALA A   4       8.255  -3.251  24.807  0.00  0.00    -0.305 N 
ATOM     22  H   ALA A   4       9.128  -3.626  24.443  0.00  0.00    +0.149 HD
BRANCH  21  23
ATOM     23  CA  ALA A   4       7.309  -4.223  25.336  0.00  0.00    +0.133 C 
ATOM     24  CB  ALA A   4       6.628  -5.016  24.230  0.00  0.00    +0.035 C 
BRANCH  23  25
ATOM     25  C   ALA A   4       8.072  -5.175  26.245  0.00  0.00    +0.245 C 
ATOM     26  O   ALA A   4       7.543  -5.817  27.151  0.00  0.00    -0.299 OA
ENDBRANCH  23  25
ENDBRANCH  21  23
ENDBRANCH  18  19
BRANCH  18  27
ATOM     27  CB  SER A   3       9.882  -0.184  25.459  0.00  0.00    +0.187 C 
BRANCH  27  28
ATOM     28  OG  SER A   3       9.273  -0.375  26.735  0.00  0.00    -0.393 OA
ATOM     29  H   SER A   3       9.202   0.507  27.145  0.00  0.00    +0.209 HD
ENDBRANCH  27  28
ENDBRANCH  18  27
ENDBRANCH  16  18
ENDBRANCH   1  14
BRANCH   1  30
ATOM     30  CB  GLN A   2       7.611   0.159  19.801  0.00  0.00    +0.041 C 
BRANCH  30  31
ATOM     31  CG  GLN A   2       6.379  -0.174  18.959  0.00  0.00    +0.098 C 
BRANCH  31  32
ATOM     32  CD  GLN A   2       5.806   1.025  18.232  0.00  0.00    +0.211 C 
ATOM     33  OE1 GLN A   2       6.265   1.438  17.174  0.00  0.00    -0.276 OA
ATOM     34  NE2 GLN A   2       4.796   1.691  18.854  0.00  0.00    -0.329 N 
ATOM     35 HE21 GLN A   2       4.311   1.347  19.669  0.00  0.00    +0.145 HD
ATOM     36 HE22 GLN A   2       4.396   2.478  18.357  0.00  0.00    +0.145 HD
ENDBRANCH  31  32
ENDBRANCH  30  31
ENDBRANCH   1  30
TORSDOF 15
ENDMDL
MODEL 18
REMARK VINA RESULT:      -6.1      2.144      5.523
REMARK  Name = LQSA-mmff94.pdb
REMARK  18 active torsions:
REMARK  status: ('A' for Active; 'I' for Inactive)
REMARK    1  A    between atoms: _1  and  _2
REMARK    2  A    between atoms: _2  and  _3
REMARK    3  A    between atoms: _2  and  _5
REMARK    4  A    between atoms: _5  and  _6
REMARK    5  A    between atoms: _6  and  _7
REMARK    6  A    between atoms: _6  and  _8
REMARK    7  A    between atoms: _20  and  _21
REMARK    8  A    between atoms: _21  and  _22
REMARK    9  A    between atoms: _21  and  _24
REMARK   10  A    between atoms: _24  and  _25
REMARK   11  A    between atoms: _25  and  _26
REMARK   12  A    between atoms: _37  and  _38
REMARK   13  A    between atoms: _38  and  _39
REMARK   14  A    between atoms: _38  and  _41
REMARK   15  A    between atoms: _41  and  _42
REMARK   16  A    between atoms: _48  and  _49
REMARK   17  A    between atoms: _49  and  _50
REMARK   18  A    between atoms: _49  and  _52
REMARK                            x       y       z     vdW  Elec       q    Type
REMARK                         _______ _______ _______ _____ _____    ______ ____
ROOT
ATOM      1  CA  GLN A   2       7.590  -3.249  22.481  0.00  0.00    +0.159 C 
ENDROOT
BRANCH   1   3
ATOM      2  C   LEU A   1       8.455  -4.382  24.518  0.00  0.00    +0.230 C 
ATOM      3  N   GLN A   2       7.951  -3.265  23.898  0.00  0.00    -0.303 N 
ATOM      4  H   GLN A   2       7.775  -2.415  24.428  0.00  0.00    +0.149 HD
ATOM      5  O   LEU A   1       8.655  -5.436  23.918  0.00  0.00    -0.274 OA
BRANCH   2   6
ATOM      6  CA  LEU A   1       8.731  -4.212  26.031  0.00  0.00    +0.138 C 
BRANCH   6   7
ATOM      7  N   LEU A   1       8.562  -2.794  26.401  0.00  0.00    -0.320 NA
ATOM      8  H1  LEU A   1       8.182  -2.300  25.590  0.00  0.00    +0.119 HD
ATOM      9  H2  LEU A   1       7.800  -2.744  27.083  0.00  0.00    +0.119 HD
ENDBRANCH   6   7
BRANCH   6  10
ATOM     10  CB  LEU A   1       7.788  -5.117  26.840  0.00  0.00    +0.031 C 
BRANCH  10  11
ATOM     11  CG  LEU A   1       6.281  -4.855  26.630  0.00  0.00    -0.015 C 
ATOM     12  CD2 LEU A   1       5.605  -6.123  26.102  0.00  0.00    +0.007 C 
ATOM     13  CD1 LEU A   1       5.586  -4.397  27.914  0.00  0.00    +0.007 C 
ENDBRANCH  10  11
ENDBRANCH   6  10
ENDBRANCH   2   6
ENDBRANCH   1   3
BRANCH   1  14
ATOM     14  C   GLN A   2       8.290  -2.020  21.871  0.00  0.00    +0.234 C 
ATOM     15  O   GLN A   2       9.492  -1.804  22.026  0.00  0.00    -0.274 OA
ATOM     16  N   SER A   3       7.475  -1.164  21.177  0.00  0.00    -0.301 N 
ATOM     17  H   SER A   3       6.471  -1.324  21.112  0.00  0.00    +0.150 HD
BRANCH  16  18
ATOM     18  CA  SER A   3       7.941   0.133  20.677  0.00  0.00    +0.184 C 
BRANCH  18  19
ATOM     19  C   SER A   3       7.919   1.110  21.866  0.00  0.00    +0.236 C 
ATOM     20  O   SER A   3       6.869   1.619  22.261  0.00  0.00    -0.274 OA
ATOM     21  N   ALA A   4       9.125   1.330  22.482  0.00  0.00    -0.305 N 
ATOM     22  H   ALA A   4       9.989   0.954  22.096  0.00  0.00    +0.149 HD
BRANCH  21  23
ATOM     23  CA  ALA A   4       9.270   2.257  23.596  0.00  0.00    +0.133 C 
ATOM     24  CB  ALA A   4       9.133   1.559  24.941  0.00  0.00    +0.035 C 
BRANCH  23  25
ATOM     25  C   ALA A   4      10.646   2.900  23.496  0.00  0.00    +0.245 C 
ATOM     26  O   ALA A   4      10.828   4.116  23.508  0.00  0.00    -0.299 OA
ENDBRANCH  23  25
ENDBRANCH  21  23
ENDBRANCH  18  19
BRANCH  18  27
ATOM     27  CB  SER A   3       7.092   0.635  19.505  0.00  0.00    +0.187 C 
BRANCH  27  28
ATOM     28  OG  SER A   3       7.674   0.288  18.249  0.00  0.00    -0.393 OA
ATOM     29  H   SER A   3       7.145  -0.447  17.889  0.00  0.00    +0.209 HD
ENDBRANCH  27  28
ENDBRANCH  18  27
ENDBRANCH  16  18
ENDBRANCH   1  14
BRANCH   1  30
ATOM     30  CB  GLN A   2       6.064  -3.170  22.322  0.00  0.00    +0.041 C 
BRANCH  30  31
ATOM     31  CG  GLN A   2       5.358  -4.519  22.462  0.00  0.00    +0.098 C 
BRANCH  31  32
ATOM     32  CD  GLN A   2       5.945  -5.598  21.577  0.00  0.00    +0.211 C 
ATOM     33  OE1 GLN A   2       5.952  -5.520  20.353  0.00  0.00    -0.276 OA
ATOM     34  NE2 GLN A   2       6.398  -6.720  22.199  0.00  0.00    -0.329 N 
ATOM     35 HE21 GLN A   2       6.511  -6.804  23.198  0.00  0.00    +0.145 HD
ATOM     36 HE22 GLN A   2       6.813  -7.432  21.611  0.00  0.00    +0.145 HD
ENDBRANCH  31  32
ENDBRANCH  30  31
ENDBRANCH   1  30
TORSDOF 15
ENDMDL
MODEL 19
REMARK VINA RESULT:      -6.0      1.900      5.011
REMARK  Name = LQSA-mmff94.pdb
REMARK  18 active torsions:
REMARK  status: ('A' for Active; 'I' for Inactive)
REMARK    1  A    between atoms: _1  and  _2
REMARK    2  A    between atoms: _2  and  _3
REMARK    3  A    between atoms: _2  and  _5
REMARK    4  A    between atoms: _5  and  _6
REMARK    5  A    between atoms: _6  and  _7
REMARK    6  A    between atoms: _6  and  _8
REMARK    7  A    between atoms: _20  and  _21
REMARK    8  A    between atoms: _21  and  _22
REMARK    9  A    between atoms: _21  and  _24
REMARK   10  A    between atoms: _24  and  _25
REMARK   11  A    between atoms: _25  and  _26
REMARK   12  A    between atoms: _37  and  _38
REMARK   13  A    between atoms: _38  and  _39
REMARK   14  A    between atoms: _38  and  _41
REMARK   15  A    between atoms: _41  and  _42
REMARK   16  A    between atoms: _48  and  _49
REMARK   17  A    between atoms: _49  and  _50
REMARK   18  A    between atoms: _49  and  _52
REMARK                            x       y       z     vdW  Elec       q    Type
REMARK                         _______ _______ _______ _____ _____    ______ ____
ROOT
ATOM      1  CA  GLN A   2       7.731  -2.919  22.642  0.00  0.00    +0.159 C 
ENDROOT
BRANCH   1   3
ATOM      2  C   LEU A   1       8.871  -1.016  21.521  0.00  0.00    +0.230 C 
ATOM      3  N   GLN A   2       7.726  -1.609  21.992  0.00  0.00    -0.303 N 
ATOM      4  H   GLN A   2       6.834  -1.126  21.937  0.00  0.00    +0.149 HD
ATOM      5  O   LEU A   1       9.974  -1.555  21.596  0.00  0.00    -0.274 OA
BRANCH   2   6
ATOM      6  CA  LEU A   1       8.666   0.390  20.909  0.00  0.00    +0.138 C 
BRANCH   6   7
ATOM      7  N   LEU A   1       7.921   0.266  19.641  0.00  0.00    -0.320 NA
ATOM      8  H1  LEU A   1       6.962  -0.009  19.865  0.00  0.00    +0.119 HD
ATOM      9  H2  LEU A   1       7.810   1.209  19.257  0.00  0.00    +0.119 HD
ENDBRANCH   6   7
BRANCH   6  10
ATOM     10  CB  LEU A   1       7.924   1.293  21.907  0.00  0.00    +0.031 C 
BRANCH  10  11
ATOM     11  CG  LEU A   1       8.825   2.077  22.884  0.00  0.00    -0.015 C 
ATOM     12  CD2 LEU A   1       8.774   1.427  24.269  0.00  0.00    +0.007 C 
ATOM     13  CD1 LEU A   1      10.275   2.155  22.403  0.00  0.00    +0.007 C 
ENDBRANCH  10  11
ENDBRANCH   6  10
ENDBRANCH   2   6
ENDBRANCH   1   3
BRANCH   1  14
ATOM     14  C   GLN A   2       6.313  -3.494  22.464  0.00  0.00    +0.234 C 
ATOM     15  O   GLN A   2       5.593  -3.185  21.515  0.00  0.00    -0.274 OA
ATOM     16  N   SER A   3       5.895  -4.344  23.455  0.00  0.00    -0.301 N 
ATOM     17  H   SER A   3       6.479  -4.539  24.267  0.00  0.00    +0.150 HD
BRANCH  16  18
ATOM     18  CA  SER A   3       4.520  -4.846  23.532  0.00  0.00    +0.184 C 
BRANCH  18  19
ATOM     19  C   SER A   3       4.167  -4.972  25.024  0.00  0.00    +0.236 C 
ATOM     20  O   SER A   3       3.023  -4.765  25.434  0.00  0.00    -0.274 OA
ATOM     21  N   ALA A   4       5.185  -5.378  25.849  0.00  0.00    -0.305 N 
ATOM     22  H   ALA A   4       6.136  -5.477  25.500  0.00  0.00    +0.149 HD
BRANCH  21  23
ATOM     23  CA  ALA A   4       5.013  -5.507  27.289  0.00  0.00    +0.133 C 
ATOM     24  CB  ALA A   4       4.606  -6.916  27.692  0.00  0.00    +0.035 C 
BRANCH  23  25
ATOM     25  C   ALA A   4       6.335  -5.153  27.954  0.00  0.00    +0.245 C 
ATOM     26  O   ALA A   4       7.231  -5.970  28.157  0.00  0.00    -0.299 OA
ENDBRANCH  23  25
ENDBRANCH  21  23
ENDBRANCH  18  19
BRANCH  18  27
ATOM     27  CB  SER A   3       4.353  -6.174  22.787  0.00  0.00    +0.187 C 
BRANCH  27  28
ATOM     28  OG  SER A   3       4.072  -7.247  23.685  0.00  0.00    -0.393 OA
ATOM     29  H   SER A   3       4.910  -7.461  24.135  0.00  0.00    +0.209 HD
ENDBRANCH  27  28
ENDBRANCH  18  27
ENDBRANCH  16  18
ENDBRANCH   1  14
BRANCH   1  30
ATOM     30  CB  GLN A   2       8.103  -2.776  24.125  0.00  0.00    +0.041 C 
BRANCH  30  31
ATOM     31  CG  GLN A   2       9.396  -3.496  24.510  0.00  0.00    +0.098 C 
BRANCH  31  32
ATOM     32  CD  GLN A   2       9.168  -4.893  25.047  0.00  0.00    +0.211 C 
ATOM     33  OE1 GLN A   2       8.072  -5.441  25.022  0.00  0.00    -0.276 OA
ATOM     34  NE2 GLN A   2      10.229  -5.498  25.647  0.00  0.00    -0.329 N 
ATOM     35 HE21 GLN A   2      11.174  -5.145  25.610  0.00  0.00    +0.145 HD
ATOM     36 HE22 GLN A   2      10.085  -6.442  25.984  0.00  0.00    +0.145 HD
ENDBRANCH  31  32
ENDBRANCH  30  31
ENDBRANCH   1  30
TORSDOF 15
ENDMDL
MODEL 20
REMARK VINA RESULT:      -6.0      2.768      5.929
REMARK  Name = LQSA-mmff94.pdb
REMARK  18 active torsions:
REMARK  status: ('A' for Active; 'I' for Inactive)
REMARK    1  A    between atoms: _1  and  _2
REMARK    2  A    between atoms: _2  and  _3
REMARK    3  A    between atoms: _2  and  _5
REMARK    4  A    between atoms: _5  and  _6
REMARK    5  A    between atoms: _6  and  _7
REMARK    6  A    between atoms: _6  and  _8
REMARK    7  A    between atoms: _20  and  _21
REMARK    8  A    between atoms: _21  and  _22
REMARK    9  A    between atoms: _21  and  _24
REMARK   10  A    between atoms: _24  and  _25
REMARK   11  A    between atoms: _25  and  _26
REMARK   12  A    between atoms: _37  and  _38
REMARK   13  A    between atoms: _38  and  _39
REMARK   14  A    between atoms: _38  and  _41
REMARK   15  A    between atoms: _41  and  _42
REMARK   16  A    between atoms: _48  and  _49
REMARK   17  A    between atoms: _49  and  _50
REMARK   18  A    between atoms: _49  and  _52
REMARK                            x       y       z     vdW  Elec       q    Type
REMARK                         _______ _______ _______ _____ _____    ______ ____
ROOT
ATOM      1  CA  GLN A   2       8.445  -0.585  25.147  0.00  0.00    +0.159 C 
ENDROOT
BRANCH   1   3
ATOM      2  C   LEU A   1       8.749  -3.051  25.205  0.00  0.00    +0.230 C 
ATOM      3  N   GLN A   2       8.691  -1.873  24.501  0.00  0.00    -0.303 N 
ATOM      4  H   GLN A   2       8.861  -1.861  23.499  0.00  0.00    +0.149 HD
ATOM      5  O   LEU A   1       8.578  -3.103  26.421  0.00  0.00    -0.274 OA
BRANCH   2   6
ATOM      6  CA  LEU A   1       9.066  -4.300  24.349  0.00  0.00    +0.138 C 
BRANCH   6   7
ATOM      7  N   LEU A   1       9.963  -5.195  25.106  0.00  0.00    -0.320 NA
ATOM      8  H1  LEU A   1      10.068  -4.812  26.048  0.00  0.00    +0.119 HD
ATOM      9  H2  LEU A   1       9.458  -6.072  25.264  0.00  0.00    +0.119 HD
ENDBRANCH   6   7
BRANCH   6  10
ATOM     10  CB  LEU A   1       7.763  -5.014  23.959  0.00  0.00    +0.031 C 
BRANCH  10  11
ATOM     11  CG  LEU A   1       7.369  -4.904  22.470  0.00  0.00    -0.015 C 
ATOM     12  CD2 LEU A   1       6.770  -6.229  21.994  0.00  0.00    +0.007 C 
ATOM     13  CD1 LEU A   1       6.377  -3.768  22.213  0.00  0.00    +0.007 C 
ENDBRANCH  10  11
ENDBRANCH   6  10
ENDBRANCH   2   6
ENDBRANCH   1   3
BRANCH   1  14
ATOM     14  C   GLN A   2       7.181  -0.004  24.484  0.00  0.00    +0.234 C 
ATOM     15  O   GLN A   2       6.292  -0.721  24.025  0.00  0.00    -0.274 OA
ATOM     16  N   SER A   3       7.133   1.363  24.407  0.00  0.00    -0.301 N 
ATOM     17  H   SER A   3       7.906   1.940  24.734  0.00  0.00    +0.150 HD
BRANCH  16  18
ATOM     18  CA  SER A   3       6.089   2.072  23.662  0.00  0.00    +0.184 C 
BRANCH  18  19
ATOM     19  C   SER A   3       6.559   2.162  22.199  0.00  0.00    +0.236 C 
ATOM     20  O   SER A   3       7.102   3.177  21.759  0.00  0.00    -0.274 OA
ATOM     21  N   ALA A   4       6.383   1.031  21.443  0.00  0.00    -0.305 N 
ATOM     22  H   ALA A   4       5.871   0.230  21.807  0.00  0.00    +0.149 HD
BRANCH  21  23
ATOM     23  CA  ALA A   4       6.744   0.976  20.033  0.00  0.00    +0.133 C 
ATOM     24  CB  ALA A   4       7.859  -0.025  19.767  0.00  0.00    +0.035 C 
BRANCH  23  25
ATOM     25  C   ALA A   4       5.505   0.574  19.247  0.00  0.00    +0.245 C 
ATOM     26  O   ALA A   4       5.519   0.325  18.042  0.00  0.00    -0.299 OA
ENDBRANCH  23  25
ENDBRANCH  21  23
ENDBRANCH  18  19
BRANCH  18  27
ATOM     27  CB  SER A   3       5.795   3.452  24.257  0.00  0.00    +0.187 C 
BRANCH  27  28
ATOM     28  OG  SER A   3       6.995   4.189  24.493  0.00  0.00    -0.393 OA
ATOM     29  H   SER A   3       7.549   3.639  25.077  0.00  0.00    +0.209 HD
ENDBRANCH  27  28
ENDBRANCH  18  27
ENDBRANCH  16  18
ENDBRANCH   1  14
BRANCH   1  30
ATOM     30  CB  GLN A   2       9.657   0.342  24.965  0.00  0.00    +0.041 C 
BRANCH  30  31
ATOM     31  CG  GLN A   2      10.097   0.503  23.510  0.00  0.00    +0.098 C 
BRANCH  31  32
ATOM     32  CD  GLN A   2      10.026   1.932  23.016  0.00  0.00    +0.211 C 
ATOM     33  OE1 GLN A   2       9.790   2.878  23.758  0.00  0.00    -0.276 OA
ATOM     34  NE2 GLN A   2      10.153   2.123  21.674  0.00  0.00    -0.329 N 
ATOM     35 HE21 GLN A   2      10.446   1.405  21.028  0.00  0.00    +0.145 HD
ATOM     36 HE22 GLN A   2      10.130   3.080  21.346  0.00  0.00    +0.145 HD
ENDBRANCH  31  32
ENDBRANCH  30  31
ENDBRANCH   1  30
TORSDOF 15
ENDMDL
