REMARK  Name = LQSG-mmff94.pdb
REMARK  17 active torsions:
REMARK  status: ('A' for Active; 'I' for Inactive)
REMARK    1  A    between atoms: _1  and  _2
REMARK    2  A    between atoms: _2  and  _3
REMARK    3  A    between atoms: _2  and  _5
REMARK    4  A    between atoms: _5  and  _6
REMARK    5  A    between atoms: _6  and  _7
REMARK    6  A    between atoms: _6  and  _8
REMARK    7  A    between atoms: _20  and  _21
REMARK    8  A    between atoms: _21  and  _22
REMARK    9  A    between atoms: _21  and  _24
REMARK   10  A    between atoms: _24  and  _25
REMARK   11  A    between atoms: _25  and  _26
REMARK   12  A    between atoms: _37  and  _38
REMARK   13  A    between atoms: _38  and  _39
REMARK   14  A    between atoms: _38  and  _41
REMARK   15  A    between atoms: _41  and  _42
REMARK   16  A    between atoms: _48  and  _49
REMARK   17  A    between atoms: _49  and  _50
REMARK                            x       y       z     vdW  Elec       q    Type
REMARK                         _______ _______ _______ _____ _____    ______ ____
ROOT
ATOM      1  CA  GLN A   2       4.921   0.126  -1.162  0.00  0.00    +0.159 C 
ENDROOT
BRANCH   1   4
ATOM      2  C   LEU A   1       2.745  -0.998  -0.734  0.00  0.00    +0.230 C 
ATOM      3  O   LEU A   1       3.287  -2.051  -0.405  0.00  0.00    -0.274 OA
ATOM      4  N   GLN A   2       3.460   0.114  -1.106  0.00  0.00    -0.303 N 
ATOM      5  H   GLN A   2       2.981   0.965  -1.393  0.00  0.00    +0.149 HD
BRANCH   2   6
ATOM      6  CA  LEU A   1       1.208  -0.825  -0.784  0.00  0.00    +0.138 C 
BRANCH   6   7
ATOM      7  N   LEU A   1       0.567  -2.154  -0.730  0.00  0.00    -0.320 NA
ATOM      8  H1  LEU A   1       0.975  -2.730  -1.469  0.00  0.00    +0.119 HD
ATOM      9  H2  LEU A   1       0.885  -2.613   0.128  0.00  0.00    +0.119 HD
ENDBRANCH   6   7
BRANCH   6  10
ATOM     10  CB  LEU A   1       0.741   0.068   0.377  0.00  0.00    +0.031 C 
BRANCH  10  11
ATOM     11  CG  LEU A   1      -0.783   0.292   0.465  0.00  0.00    -0.015 C 
ATOM     12  CD2 LEU A   1      -1.111   1.131   1.703  0.00  0.00    +0.007 C 
ATOM     13  CD1 LEU A   1      -1.344   0.973  -0.784  0.00  0.00    +0.007 C 
ENDBRANCH  10  11
ENDBRANCH   6  10
ENDBRANCH   2   6
ENDBRANCH   1   4
BRANCH   1  14
ATOM     14  C   GLN A   2       5.342   1.607  -1.126  0.00  0.00    +0.234 C 
ATOM     15  O   GLN A   2       4.597   2.511  -1.504  0.00  0.00    -0.274 OA
ATOM     16  N   SER A   3       6.612   1.848  -0.670  0.00  0.00    -0.301 N 
ATOM     17  H   SER A   3       7.241   1.085  -0.427  0.00  0.00    +0.150 HD
BRANCH  16  18
ATOM     18  CA  SER A   3       7.219   3.183  -0.701  0.00  0.00    +0.184 C 
BRANCH  18  19
ATOM     19  C   SER A   3       8.745   2.988  -0.667  0.00  0.00    +0.236 C 
ATOM     20  N   GLY A   4       9.501   4.121  -0.828  0.00  0.00    -0.307 N 
ATOM     21  H   GLY A   4       9.077   5.040  -0.929  0.00  0.00    +0.149 HD
ATOM     22  O   SER A   3       9.252   1.870  -0.551  0.00  0.00    -0.274 OA
BRANCH  20  23
ATOM     23  CA  GLY A   4      10.948   4.069  -0.805  0.00  0.00    +0.175 C 
BRANCH  23  24
ATOM     24  C   GLY A   4      11.511   5.460  -0.999  0.00  0.00    +0.242 C 
ATOM     25  O   GLY A   4      10.811   6.456  -1.173  0.00  0.00    -0.299 OA
ENDBRANCH  23  24
ENDBRANCH  20  23
ENDBRANCH  18  19
BRANCH  18  26
ATOM     26  CB  SER A   3       6.724   4.061   0.454  0.00  0.00    +0.187 C 
BRANCH  26  27
ATOM     27  OG  SER A   3       6.917   3.424   1.717  0.00  0.00    -0.393 OA
ATOM     28  H   SER A   3       6.434   2.579   1.681  0.00  0.00    +0.209 HD
ENDBRANCH  26  27
ENDBRANCH  18  26
ENDBRANCH  16  18
ENDBRANCH   1  14
BRANCH   1  29
ATOM     29  CB  GLN A   2       5.409  -0.574  -2.439  0.00  0.00    +0.041 C 
BRANCH  29  30
ATOM     30  CG  GLN A   2       6.926  -0.746  -2.507  0.00  0.00    +0.098 C 
BRANCH  30  31
ATOM     31  CD  GLN A   2       7.366  -1.815  -3.485  0.00  0.00    +0.211 C 
ATOM     32  OE1 GLN A   2       8.232  -2.641  -3.218  0.00  0.00    -0.276 OA
ATOM     33  NE2 GLN A   2       6.810  -1.774  -4.726  0.00  0.00    -0.329 N 
ATOM     34 HE21 GLN A   2       6.028  -1.187  -4.974  0.00  0.00    +0.145 HD
ATOM     35 HE22 GLN A   2       7.084  -2.503  -5.373  0.00  0.00    +0.145 HD
ENDBRANCH  30  31
ENDBRANCH  29  30
ENDBRANCH   1  29
TORSDOF 15
