MODEL 1
REMARK VINA RESULT:      -6.3      0.000      0.000
REMARK  Name = LQSL-mmff94.pdb
REMARK  21 active torsions:
REMARK  status: ('A' for Active; 'I' for Inactive)
REMARK    1  A    between atoms: _1  and  _2
REMARK    2  A    between atoms: _2  and  _3
REMARK    3  A    between atoms: _2  and  _5
REMARK    4  A    between atoms: _5  and  _6
REMARK    5  A    between atoms: _6  and  _7
REMARK    6  A    between atoms: _6  and  _8
REMARK    7  A    between atoms: _20  and  _21
REMARK    8  A    between atoms: _21  and  _22
REMARK    9  A    between atoms: _21  and  _24
REMARK   10  A    between atoms: _24  and  _25
REMARK   11  A    between atoms: _25  and  _26
REMARK   12  A    between atoms: _37  and  _38
REMARK   13  A    between atoms: _38  and  _39
REMARK   14  A    between atoms: _38  and  _41
REMARK   15  A    between atoms: _41  and  _42
REMARK   16  A    between atoms: _48  and  _49
REMARK   17  A    between atoms: _49  and  _50
REMARK   18  A    between atoms: _49  and  _52
REMARK   19  A    between atoms: _52  and  _53
REMARK   20  A    between atoms: _53  and  _54
REMARK   21  A    between atoms: _53  and  _55
REMARK                            x       y       z     vdW  Elec       q    Type
REMARK                         _______ _______ _______ _____ _____    ______ ____
ROOT
ATOM      1  CA  GLN A   2       7.612   0.383  21.156  0.00  0.00    +0.159 C 
ENDROOT
BRANCH   1   3
ATOM      2  C   LEU A   1       6.784   2.658  21.715  0.00  0.00    +0.230 C 
ATOM      3  N   GLN A   2       7.823   1.788  21.497  0.00  0.00    -0.303 N 
ATOM      4  H   GLN A   2       8.786   2.115  21.526  0.00  0.00    +0.149 HD
ATOM      5  O   LEU A   1       5.606   2.314  21.632  0.00  0.00    -0.274 OA
BRANCH   2   6
ATOM      6  CA  LEU A   1       7.215   4.103  22.062  0.00  0.00    +0.138 C 
BRANCH   6   7
ATOM      7  N   LEU A   1       6.034   4.873  22.499  0.00  0.00    -0.320 NA
ATOM      8  H1  LEU A   1       5.201   4.314  22.299  0.00  0.00    +0.119 HD
ATOM      9  H2  LEU A   1       6.051   4.909  23.522  0.00  0.00    +0.119 HD
ENDBRANCH   6   7
BRANCH   6  10
ATOM     10  CB  LEU A   1       8.297   4.073  23.154  0.00  0.00    +0.031 C 
BRANCH  10  11
ATOM     11  CG  LEU A   1       7.778   4.155  24.604  0.00  0.00    -0.015 C 
ATOM     12  CD2 LEU A   1       7.897   2.783  25.272  0.00  0.00    +0.007 C 
ATOM     13  CD1 LEU A   1       8.527   5.200  25.431  0.00  0.00    +0.007 C 
ENDBRANCH  10  11
ENDBRANCH   6  10
ENDBRANCH   2   6
ENDBRANCH   1   3
BRANCH   1  14
ATOM     14  C   GLN A   2       8.709  -0.413  21.883  0.00  0.00    +0.234 C 
ATOM     15  N   SER A   3       9.156   0.148  23.050  0.00  0.00    -0.301 N 
ATOM     16  H   SER A   3       8.771   1.028  23.393  0.00  0.00    +0.150 HD
ATOM     17  O   GLN A   2       9.119  -1.497  21.470  0.00  0.00    -0.274 OA
BRANCH  15  18
ATOM     18  CA  SER A   3       9.987  -0.588  24.006  0.00  0.00    +0.184 C 
BRANCH  18  19
ATOM     19  C   SER A   3       9.031  -1.451  24.842  0.00  0.00    +0.236 C 
ATOM     20  O   SER A   3       8.461  -0.997  25.835  0.00  0.00    -0.274 OA
ATOM     21  N   LEU A   4       8.821  -2.723  24.376  0.00  0.00    -0.304 N 
ATOM     22  H   LEU A   4       9.389  -3.097  23.619  0.00  0.00    +0.149 HD
BRANCH  21  23
ATOM     23  CA  LEU A   4       7.947  -3.677  25.050  0.00  0.00    +0.136 C 
BRANCH  23  24
ATOM     24  C   LEU A   4       8.815  -4.872  25.431  0.00  0.00    +0.245 C 
ATOM     25  O   LEU A   4       9.656  -5.365  24.680  0.00  0.00    -0.299 OA
ENDBRANCH  23  24
BRANCH  23  26
ATOM     26  CB  LEU A   4       6.805  -4.169  24.149  0.00  0.00    +0.032 C 
BRANCH  26  27
ATOM     27  CG  LEU A   4       7.041  -4.013  22.633  0.00  0.00    -0.015 C 
ATOM     28  CD2 LEU A   4       5.977  -3.138  21.969  0.00  0.00    +0.007 C 
ATOM     29  CD1 LEU A   4       7.055  -5.391  21.964  0.00  0.00    +0.007 C 
ENDBRANCH  26  27
ENDBRANCH  23  26
ENDBRANCH  21  23
ENDBRANCH  18  19
BRANCH  18  30
ATOM     30  CB  SER A   3      10.831   0.337  24.886  0.00  0.00    +0.187 C 
BRANCH  30  31
ATOM     31  OG  SER A   3      11.068   1.596  24.255  0.00  0.00    -0.393 OA
ATOM     32  H   SER A   3      10.437   1.659  23.514  0.00  0.00    +0.209 HD
ENDBRANCH  30  31
ENDBRANCH  18  30
ENDBRANCH  15  18
ENDBRANCH   1  14
BRANCH   1  33
ATOM     33  CB  GLN A   2       7.695   0.179  19.635  0.00  0.00    +0.041 C 
BRANCH  33  34
ATOM     34  CG  GLN A   2       6.346  -0.113  18.977  0.00  0.00    +0.098 C 
BRANCH  34  35
ATOM     35  CD  GLN A   2       5.750   1.052  18.212  0.00  0.00    +0.211 C 
ATOM     36  OE1 GLN A   2       6.224   1.451  17.153  0.00  0.00    -0.276 OA
ATOM     37  NE2 GLN A   2       4.719   1.721  18.795  0.00  0.00    -0.329 N 
ATOM     38 HE21 GLN A   2       4.182   1.357  19.568  0.00  0.00    +0.145 HD
ATOM     39 HE22 GLN A   2       4.311   2.474  18.255  0.00  0.00    +0.145 HD
ENDBRANCH  34  35
ENDBRANCH  33  34
ENDBRANCH   1  33
TORSDOF 17
ENDMDL
MODEL 2
REMARK VINA RESULT:      -6.3      2.608      5.424
REMARK  Name = LQSL-mmff94.pdb
REMARK  21 active torsions:
REMARK  status: ('A' for Active; 'I' for Inactive)
REMARK    1  A    between atoms: _1  and  _2
REMARK    2  A    between atoms: _2  and  _3
REMARK    3  A    between atoms: _2  and  _5
REMARK    4  A    between atoms: _5  and  _6
REMARK    5  A    between atoms: _6  and  _7
REMARK    6  A    between atoms: _6  and  _8
REMARK    7  A    between atoms: _20  and  _21
REMARK    8  A    between atoms: _21  and  _22
REMARK    9  A    between atoms: _21  and  _24
REMARK   10  A    between atoms: _24  and  _25
REMARK   11  A    between atoms: _25  and  _26
REMARK   12  A    between atoms: _37  and  _38
REMARK   13  A    between atoms: _38  and  _39
REMARK   14  A    between atoms: _38  and  _41
REMARK   15  A    between atoms: _41  and  _42
REMARK   16  A    between atoms: _48  and  _49
REMARK   17  A    between atoms: _49  and  _50
REMARK   18  A    between atoms: _49  and  _52
REMARK   19  A    between atoms: _52  and  _53
REMARK   20  A    between atoms: _53  and  _54
REMARK   21  A    between atoms: _53  and  _55
REMARK                            x       y       z     vdW  Elec       q    Type
REMARK                         _______ _______ _______ _____ _____    ______ ____
ROOT
ATOM      1  CA  GLN A   2       9.483  -0.600  24.108  0.00  0.00    +0.159 C 
ENDROOT
BRANCH   1   3
ATOM      2  C   LEU A   1       8.619   0.339  21.977  0.00  0.00    +0.230 C 
ATOM      3  N   GLN A   2       8.409  -0.335  23.154  0.00  0.00    -0.303 N 
ATOM      4  H   GLN A   2       7.474  -0.636  23.418  0.00  0.00    +0.149 HD
ATOM      5  O   LEU A   1       9.724   0.770  21.650  0.00  0.00    -0.274 OA
BRANCH   2   6
ATOM      6  CA  LEU A   1       7.355   0.522  21.104  0.00  0.00    +0.138 C 
BRANCH   6   7
ATOM      7  N   LEU A   1       6.777   1.856  21.355  0.00  0.00    -0.320 NA
ATOM      8  H1  LEU A   1       6.282   2.150  20.510  0.00  0.00    +0.119 HD
ATOM      9  H2  LEU A   1       6.023   1.740  22.039  0.00  0.00    +0.119 HD
ENDBRANCH   6   7
BRANCH   6  10
ATOM     10  CB  LEU A   1       7.718   0.340  19.621  0.00  0.00    +0.031 C 
BRANCH  10  11
ATOM     11  CG  LEU A   1       6.618  -0.288  18.742  0.00  0.00    -0.015 C 
ATOM     12  CD2 LEU A   1       5.754  -1.226  19.589  0.00  0.00    +0.007 C 
ATOM     13  CD1 LEU A   1       5.733   0.768  18.076  0.00  0.00    +0.007 C 
ENDBRANCH  10  11
ENDBRANCH   6  10
ENDBRANCH   2   6
ENDBRANCH   1   3
BRANCH   1  14
ATOM     14  C   GLN A   2       9.879  -2.075  23.919  0.00  0.00    +0.234 C 
ATOM     15  N   SER A   3       9.413  -2.929  24.884  0.00  0.00    -0.301 N 
ATOM     16  H   SER A   3       8.844  -2.589  25.658  0.00  0.00    +0.150 HD
ATOM     17  O   GLN A   2      10.526  -2.463  22.947  0.00  0.00    -0.274 OA
BRANCH  15  18
ATOM     18  CA  SER A   3       9.455  -4.386  24.728  0.00  0.00    +0.184 C 
BRANCH  18  19
ATOM     19  C   SER A   3       8.141  -4.790  24.045  0.00  0.00    +0.236 C 
ATOM     20  O   SER A   3       8.114  -5.658  23.172  0.00  0.00    -0.274 OA
ATOM     21  N   LEU A   4       7.014  -4.162  24.509  0.00  0.00    -0.304 N 
ATOM     22  H   LEU A   4       7.088  -3.376  25.151  0.00  0.00    +0.149 HD
BRANCH  21  23
ATOM     23  CA  LEU A   4       5.685  -4.424  23.969  0.00  0.00    +0.136 C 
BRANCH  23  24
ATOM     24  C   LEU A   4       5.334  -3.237  23.078  0.00  0.00    +0.245 C 
ATOM     25  O   LEU A   4       5.965  -2.180  23.075  0.00  0.00    -0.299 OA
ENDBRANCH  23  24
BRANCH  23  26
ATOM     26  CB  LEU A   4       4.616  -4.545  25.066  0.00  0.00    +0.032 C 
BRANCH  26  27
ATOM     27  CG  LEU A   4       4.272  -5.983  25.501  0.00  0.00    -0.015 C 
ATOM     28  CD2 LEU A   4       5.123  -6.450  26.683  0.00  0.00    +0.007 C 
ATOM     29  CD1 LEU A   4       4.465  -6.944  24.325  0.00  0.00    +0.007 C 
ENDBRANCH  26  27
ENDBRANCH  23  26
ENDBRANCH  21  23
ENDBRANCH  18  19
BRANCH  18  30
ATOM     30  CB  SER A   3       9.650  -5.114  26.060  0.00  0.00    +0.187 C 
BRANCH  30  31
ATOM     31  OG  SER A   3       8.555  -4.892  26.948  0.00  0.00    -0.393 OA
ATOM     32  H   SER A   3       8.468  -5.698  27.489  0.00  0.00    +0.209 HD
ENDBRANCH  30  31
ENDBRANCH  18  30
ENDBRANCH  15  18
ENDBRANCH   1  14
BRANCH   1  33
ATOM     33  CB  GLN A   2       9.006  -0.334  25.545  0.00  0.00    +0.041 C 
BRANCH  33  34
ATOM     34  CG  GLN A   2       7.515  -0.013  25.651  0.00  0.00    +0.098 C 
BRANCH  34  35
ATOM     35  CD  GLN A   2       6.663  -1.140  26.199  0.00  0.00    +0.211 C 
ATOM     36  OE1 GLN A   2       7.153  -2.142  26.712  0.00  0.00    -0.276 OA
ATOM     37  NE2 GLN A   2       5.319  -1.056  26.010  0.00  0.00    -0.329 N 
ATOM     38 HE21 GLN A   2       4.842  -0.206  25.751  0.00  0.00    +0.145 HD
ATOM     39 HE22 GLN A   2       4.762  -1.801  26.413  0.00  0.00    +0.145 HD
ENDBRANCH  34  35
ENDBRANCH  33  34
ENDBRANCH   1  33
TORSDOF 17
ENDMDL
MODEL 3
REMARK VINA RESULT:      -6.2      2.346      4.944
REMARK  Name = LQSL-mmff94.pdb
REMARK  21 active torsions:
REMARK  status: ('A' for Active; 'I' for Inactive)
REMARK    1  A    between atoms: _1  and  _2
REMARK    2  A    between atoms: _2  and  _3
REMARK    3  A    between atoms: _2  and  _5
REMARK    4  A    between atoms: _5  and  _6
REMARK    5  A    between atoms: _6  and  _7
REMARK    6  A    between atoms: _6  and  _8
REMARK    7  A    between atoms: _20  and  _21
REMARK    8  A    between atoms: _21  and  _22
REMARK    9  A    between atoms: _21  and  _24
REMARK   10  A    between atoms: _24  and  _25
REMARK   11  A    between atoms: _25  and  _26
REMARK   12  A    between atoms: _37  and  _38
REMARK   13  A    between atoms: _38  and  _39
REMARK   14  A    between atoms: _38  and  _41
REMARK   15  A    between atoms: _41  and  _42
REMARK   16  A    between atoms: _48  and  _49
REMARK   17  A    between atoms: _49  and  _50
REMARK   18  A    between atoms: _49  and  _52
REMARK   19  A    between atoms: _52  and  _53
REMARK   20  A    between atoms: _53  and  _54
REMARK   21  A    between atoms: _53  and  _55
REMARK                            x       y       z     vdW  Elec       q    Type
REMARK                         _______ _______ _______ _____ _____    ______ ____
ROOT
ATOM      1  CA  GLN A   2       9.349  -0.408  24.371  0.00  0.00    +0.159 C 
ENDROOT
BRANCH   1   3
ATOM      2  C   LEU A   1       8.278  -0.528  22.132  0.00  0.00    +0.230 C 
ATOM      3  N   GLN A   2       8.335  -0.004  23.400  0.00  0.00    -0.303 N 
ATOM      4  H   GLN A   2       7.686   0.724  23.688  0.00  0.00    +0.149 HD
ATOM      5  O   LEU A   1       9.082  -1.367  21.728  0.00  0.00    -0.274 OA
BRANCH   2   6
ATOM      6  CA  LEU A   1       7.133   0.030  21.254  0.00  0.00    +0.138 C 
BRANCH   6   7
ATOM      7  N   LEU A   1       6.574   1.238  21.892  0.00  0.00    -0.320 NA
ATOM      8  H1  LEU A   1       5.986   1.715  21.204  0.00  0.00    +0.119 HD
ATOM      9  H2  LEU A   1       5.902   0.928  22.600  0.00  0.00    +0.119 HD
ENDBRANCH   6   7
BRANCH   6  10
ATOM     10  CB  LEU A   1       7.663   0.336  19.844  0.00  0.00    +0.031 C 
BRANCH  10  11
ATOM     11  CG  LEU A   1       6.742  -0.092  18.683  0.00  0.00    -0.015 C 
ATOM     12  CD2 LEU A   1       5.756  -1.156  19.173  0.00  0.00    +0.007 C 
ATOM     13  CD1 LEU A   1       5.974   1.087  18.086  0.00  0.00    +0.007 C 
ENDBRANCH  10  11
ENDBRANCH   6  10
ENDBRANCH   2   6
ENDBRANCH   1   3
BRANCH   1  14
ATOM     14  C   GLN A   2       8.601  -0.715  25.681  0.00  0.00    +0.234 C 
ATOM     15  N   SER A   3       7.276  -1.031  25.532  0.00  0.00    -0.301 N 
ATOM     16  H   SER A   3       6.841  -1.058  24.610  0.00  0.00    +0.150 HD
ATOM     17  O   GLN A   2       9.165  -0.723  26.774  0.00  0.00    -0.274 OA
BRANCH  15  18
ATOM     18  CA  SER A   3       6.483  -1.612  26.618  0.00  0.00    +0.184 C 
BRANCH  18  19
ATOM     19  C   SER A   3       6.556  -3.137  26.445  0.00  0.00    +0.236 C 
ATOM     20  O   SER A   3       6.180  -3.900  27.335  0.00  0.00    -0.274 OA
ATOM     21  N   LEU A   4       7.014  -3.573  25.229  0.00  0.00    -0.304 N 
ATOM     22  H   LEU A   4       7.417  -2.919  24.562  0.00  0.00    +0.149 HD
BRANCH  21  23
ATOM     23  CA  LEU A   4       7.151  -4.988  24.899  0.00  0.00    +0.136 C 
BRANCH  23  24
ATOM     24  C   LEU A   4       8.620  -5.216  24.558  0.00  0.00    +0.245 C 
ATOM     25  O   LEU A   4       9.452  -4.310  24.501  0.00  0.00    -0.299 OA
ENDBRANCH  23  24
BRANCH  23  26
ATOM     26  CB  LEU A   4       6.299  -5.396  23.689  0.00  0.00    +0.032 C 
BRANCH  26  27
ATOM     27  CG  LEU A   4       6.743  -4.808  22.335  0.00  0.00    -0.015 C 
ATOM     28  CD2 LEU A   4       5.894  -3.605  21.920  0.00  0.00    +0.007 C 
ATOM     29  CD1 LEU A   4       6.662  -5.884  21.248  0.00  0.00    +0.007 C 
ENDBRANCH  26  27
ENDBRANCH  23  26
ENDBRANCH  21  23
ENDBRANCH  18  19
BRANCH  18  30
ATOM     30  CB  SER A   3       5.036  -1.111  26.622  0.00  0.00    +0.187 C 
BRANCH  30  31
ATOM     31  OG  SER A   3       4.193  -1.925  25.807  0.00  0.00    -0.393 OA
ATOM     32  H   SER A   3       4.778  -2.404  25.192  0.00  0.00    +0.209 HD
ENDBRANCH  30  31
ENDBRANCH  18  30
ENDBRANCH  15  18
ENDBRANCH   1  14
BRANCH   1  33
ATOM     33  CB  GLN A   2      10.380   0.714  24.572  0.00  0.00    +0.041 C 
BRANCH  33  34
ATOM     34  CG  GLN A   2       9.855   2.106  24.219  0.00  0.00    +0.098 C 
BRANCH  34  35
ATOM     35  CD  GLN A   2      10.601   2.797  23.096  0.00  0.00    +0.211 C 
ATOM     36  OE1 GLN A   2      11.390   3.715  23.301  0.00  0.00    -0.276 OA
ATOM     37  NE2 GLN A   2      10.289   2.436  21.823  0.00  0.00    -0.329 N 
ATOM     38 HE21 GLN A   2       9.784   1.594  21.587  0.00  0.00    +0.145 HD
ATOM     39 HE22 GLN A   2      10.821   2.883  21.086  0.00  0.00    +0.145 HD
ENDBRANCH  34  35
ENDBRANCH  33  34
ENDBRANCH   1  33
TORSDOF 17
ENDMDL
MODEL 4
REMARK VINA RESULT:      -6.2      2.059      5.835
REMARK  Name = LQSL-mmff94.pdb
REMARK  21 active torsions:
REMARK  status: ('A' for Active; 'I' for Inactive)
REMARK    1  A    between atoms: _1  and  _2
REMARK    2  A    between atoms: _2  and  _3
REMARK    3  A    between atoms: _2  and  _5
REMARK    4  A    between atoms: _5  and  _6
REMARK    5  A    between atoms: _6  and  _7
REMARK    6  A    between atoms: _6  and  _8
REMARK    7  A    between atoms: _20  and  _21
REMARK    8  A    between atoms: _21  and  _22
REMARK    9  A    between atoms: _21  and  _24
REMARK   10  A    between atoms: _24  and  _25
REMARK   11  A    between atoms: _25  and  _26
REMARK   12  A    between atoms: _37  and  _38
REMARK   13  A    between atoms: _38  and  _39
REMARK   14  A    between atoms: _38  and  _41
REMARK   15  A    between atoms: _41  and  _42
REMARK   16  A    between atoms: _48  and  _49
REMARK   17  A    between atoms: _49  and  _50
REMARK   18  A    between atoms: _49  and  _52
REMARK   19  A    between atoms: _52  and  _53
REMARK   20  A    between atoms: _53  and  _54
REMARK   21  A    between atoms: _53  and  _55
REMARK                            x       y       z     vdW  Elec       q    Type
REMARK                         _______ _______ _______ _____ _____    ______ ____
ROOT
ATOM      1  CA  GLN A   2       6.890  -1.101  20.974  0.00  0.00    +0.159 C 
ENDROOT
BRANCH   1   3
ATOM      2  C   LEU A   1       6.845  -2.811  22.776  0.00  0.00    +0.230 C 
ATOM      3  N   GLN A   2       6.474  -1.582  22.288  0.00  0.00    -0.303 N 
ATOM      4  H   GLN A   2       5.852  -0.981  22.823  0.00  0.00    +0.149 HD
ATOM      5  O   LEU A   1       7.548  -3.591  22.134  0.00  0.00    -0.274 OA
BRANCH   2   6
ATOM      6  CA  LEU A   1       6.300  -3.137  24.186  0.00  0.00    +0.138 C 
BRANCH   6   7
ATOM      7  N   LEU A   1       4.825  -3.166  24.145  0.00  0.00    -0.320 NA
ATOM      8  H1  LEU A   1       4.542  -3.532  23.233  0.00  0.00    +0.119 HD
ATOM      9  H2  LEU A   1       4.514  -3.892  24.797  0.00  0.00    +0.119 HD
ENDBRANCH   6   7
BRANCH   6  10
ATOM     10  CB  LEU A   1       6.873  -4.481  24.665  0.00  0.00    +0.031 C 
BRANCH  10  11
ATOM     11  CG  LEU A   1       7.990  -4.386  25.724  0.00  0.00    -0.015 C 
ATOM     12  CD2 LEU A   1       7.632  -5.255  26.931  0.00  0.00    +0.007 C 
ATOM     13  CD1 LEU A   1       9.352  -4.807  25.170  0.00  0.00    +0.007 C 
ENDBRANCH  10  11
ENDBRANCH   6  10
ENDBRANCH   2   6
ENDBRANCH   1   3
BRANCH   1  14
ATOM     14  C   GLN A   2       7.192   0.400  21.133  0.00  0.00    +0.234 C 
ATOM     15  N   SER A   3       6.297   1.092  21.906  0.00  0.00    -0.301 N 
ATOM     16  H   SER A   3       5.499   0.625  22.335  0.00  0.00    +0.150 HD
ATOM     17  O   GLN A   2       8.190   0.926  20.643  0.00  0.00    -0.274 OA
BRANCH  15  18
ATOM     18  CA  SER A   3       6.565   2.449  22.390  0.00  0.00    +0.184 C 
BRANCH  18  19
ATOM     19  C   SER A   3       7.607   2.315  23.509  0.00  0.00    +0.236 C 
ATOM     20  O   SER A   3       7.270   2.194  24.688  0.00  0.00    -0.274 OA
ATOM     21  N   LEU A   4       8.915   2.287  23.100  0.00  0.00    -0.304 N 
ATOM     22  H   LEU A   4       9.160   2.498  22.135  0.00  0.00    +0.149 HD
BRANCH  21  23
ATOM     23  CA  LEU A   4      10.032   2.169  24.032  0.00  0.00    +0.136 C 
BRANCH  23  24
ATOM     24  C   LEU A   4      11.081   3.183  23.587  0.00  0.00    +0.245 C 
ATOM     25  O   LEU A   4      10.883   4.398  23.563  0.00  0.00    -0.299 OA
ENDBRANCH  23  24
BRANCH  23  26
ATOM     26  CB  LEU A   4      10.667   0.770  24.017  0.00  0.00    +0.032 C 
BRANCH  26  27
ATOM     27  CG  LEU A   4       9.683  -0.404  23.843  0.00  0.00    -0.015 C 
ATOM     28  CD2 LEU A   4       9.234  -0.986  25.184  0.00  0.00    +0.007 C 
ATOM     29  CD1 LEU A   4      10.333  -1.507  23.003  0.00  0.00    +0.007 C 
ENDBRANCH  26  27
ENDBRANCH  23  26
ENDBRANCH  21  23
ENDBRANCH  18  19
BRANCH  18  30
ATOM     30  CB  SER A   3       5.299   3.160  22.875  0.00  0.00    +0.187 C 
BRANCH  30  31
ATOM     31  OG  SER A   3       4.435   2.275  23.586  0.00  0.00    -0.393 OA
ATOM     32  H   SER A   3       3.925   1.785  22.915  0.00  0.00    +0.209 HD
ENDBRANCH  30  31
ENDBRANCH  18  30
ENDBRANCH  15  18
ENDBRANCH   1  14
BRANCH   1  33
ATOM     33  CB  GLN A   2       5.780  -1.336  19.937  0.00  0.00    +0.041 C 
BRANCH  33  34
ATOM     34  CG  GLN A   2       6.145  -0.872  18.526  0.00  0.00    +0.098 C 
BRANCH  34  35
ATOM     35  CD  GLN A   2       5.647   0.513  18.167  0.00  0.00    +0.211 C 
ATOM     36  OE1 GLN A   2       6.260   1.251  17.401  0.00  0.00    -0.276 OA
ATOM     37  NE2 GLN A   2       4.537   0.965  18.809  0.00  0.00    -0.329 N 
ATOM     38 HE21 GLN A   2       3.901   0.367  19.315  0.00  0.00    +0.145 HD
ATOM     39 HE22 GLN A   2       4.199   1.878  18.532  0.00  0.00    +0.145 HD
ENDBRANCH  34  35
ENDBRANCH  33  34
ENDBRANCH   1  33
TORSDOF 17
ENDMDL
MODEL 5
REMARK VINA RESULT:      -6.2      2.403      7.773
REMARK  Name = LQSL-mmff94.pdb
REMARK  21 active torsions:
REMARK  status: ('A' for Active; 'I' for Inactive)
REMARK    1  A    between atoms: _1  and  _2
REMARK    2  A    between atoms: _2  and  _3
REMARK    3  A    between atoms: _2  and  _5
REMARK    4  A    between atoms: _5  and  _6
REMARK    5  A    between atoms: _6  and  _7
REMARK    6  A    between atoms: _6  and  _8
REMARK    7  A    between atoms: _20  and  _21
REMARK    8  A    between atoms: _21  and  _22
REMARK    9  A    between atoms: _21  and  _24
REMARK   10  A    between atoms: _24  and  _25
REMARK   11  A    between atoms: _25  and  _26
REMARK   12  A    between atoms: _37  and  _38
REMARK   13  A    between atoms: _38  and  _39
REMARK   14  A    between atoms: _38  and  _41
REMARK   15  A    between atoms: _41  and  _42
REMARK   16  A    between atoms: _48  and  _49
REMARK   17  A    between atoms: _49  and  _50
REMARK   18  A    between atoms: _49  and  _52
REMARK   19  A    between atoms: _52  and  _53
REMARK   20  A    between atoms: _53  and  _54
REMARK   21  A    between atoms: _53  and  _55
REMARK                            x       y       z     vdW  Elec       q    Type
REMARK                         _______ _______ _______ _____ _____    ______ ____
ROOT
ATOM      1  CA  GLN A   2       8.108  -2.704  23.370  0.00  0.00    +0.159 C 
ENDROOT
BRANCH   1   3
ATOM      2  C   LEU A   1       5.988  -3.951  23.021  0.00  0.00    +0.230 C 
ATOM      3  N   GLN A   2       7.335  -3.803  22.798  0.00  0.00    -0.303 N 
ATOM      4  H   GLN A   2       7.847  -4.492  22.252  0.00  0.00    +0.149 HD
ATOM      5  O   LEU A   1       5.345  -3.172  23.723  0.00  0.00    -0.274 OA
BRANCH   2   6
ATOM      6  CA  LEU A   1       5.351  -5.180  22.330  0.00  0.00    +0.138 C 
BRANCH   6   7
ATOM      7  N   LEU A   1       5.970  -5.369  21.003  0.00  0.00    -0.320 NA
ATOM      8  H1  LEU A   1       6.426  -6.284  20.995  0.00  0.00    +0.119 HD
ATOM      9  H2  LEU A   1       5.211  -5.479  20.323  0.00  0.00    +0.119 HD
ENDBRANCH   6   7
BRANCH   6  10
ATOM     10  CB  LEU A   1       5.533  -6.425  23.214  0.00  0.00    +0.031 C 
BRANCH  10  11
ATOM     11  CG  LEU A   1       4.315  -6.805  24.081  0.00  0.00    -0.015 C 
ATOM     12  CD2 LEU A   1       4.588  -6.438  25.542  0.00  0.00    +0.007 C 
ATOM     13  CD1 LEU A   1       3.031  -6.123  23.608  0.00  0.00    +0.007 C 
ENDBRANCH  10  11
ENDBRANCH   6  10
ENDBRANCH   2   6
ENDBRANCH   1   3
BRANCH   1  14
ATOM     14  C   GLN A   2       8.641  -1.881  22.183  0.00  0.00    +0.234 C 
ATOM     15  N   SER A   3       7.684  -1.214  21.464  0.00  0.00    -0.301 N 
ATOM     16  H   SER A   3       6.698  -1.271  21.718  0.00  0.00    +0.150 HD
ATOM     17  O   GLN A   2       9.841  -1.791  21.931  0.00  0.00    -0.274 OA
BRANCH  15  18
ATOM     18  CA  SER A   3       8.021  -0.177  20.485  0.00  0.00    +0.184 C 
BRANCH  18  19
ATOM     19  C   SER A   3       8.068   1.151  21.254  0.00  0.00    +0.236 C 
ATOM     20  O   SER A   3       7.183   1.997  21.124  0.00  0.00    -0.274 OA
ATOM     21  N   LEU A   4       9.121   1.297  22.120  0.00  0.00    -0.304 N 
ATOM     22  H   LEU A   4       9.887   0.627  22.120  0.00  0.00    +0.149 HD
BRANCH  21  23
ATOM     23  CA  LEU A   4       9.320   2.497  22.925  0.00  0.00    +0.136 C 
BRANCH  23  24
ATOM     24  C   LEU A   4      10.777   2.908  22.742  0.00  0.00    +0.245 C 
ATOM     25  O   LEU A   4      11.344   3.734  23.457  0.00  0.00    -0.299 OA
ENDBRANCH  23  24
BRANCH  23  26
ATOM     26  CB  LEU A   4       9.064   2.253  24.420  0.00  0.00    +0.032 C 
BRANCH  26  27
ATOM     27  CG  LEU A   4       8.887   0.778  24.831  0.00  0.00    -0.015 C 
ATOM     28  CD2 LEU A   4       7.898   0.614  25.987  0.00  0.00    +0.007 C 
ATOM     29  CD1 LEU A   4      10.240   0.182  25.232  0.00  0.00    +0.007 C 
ENDBRANCH  26  27
ENDBRANCH  23  26
ENDBRANCH  21  23
ENDBRANCH  18  19
BRANCH  18  30
ATOM     30  CB  SER A   3       7.028  -0.124  19.321  0.00  0.00    +0.187 C 
BRANCH  30  31
ATOM     31  OG  SER A   3       7.521   0.668  18.241  0.00  0.00    -0.393 OA
ATOM     32  H   SER A   3       7.149   0.288  17.424  0.00  0.00    +0.209 HD
ENDBRANCH  30  31
ENDBRANCH  18  30
ENDBRANCH  15  18
ENDBRANCH   1  14
BRANCH   1  33
ATOM     33  CB  GLN A   2       9.261  -3.246  24.230  0.00  0.00    +0.041 C 
BRANCH  33  34
ATOM     34  CG  GLN A   2       8.835  -3.668  25.637  0.00  0.00    +0.098 C 
BRANCH  34  35
ATOM     35  CD  GLN A   2       8.850  -5.163  25.880  0.00  0.00    +0.211 C 
ATOM     36  OE1 GLN A   2       7.927  -5.744  26.442  0.00  0.00    -0.276 OA
ATOM     37  NE2 GLN A   2       9.980  -5.840  25.545  0.00  0.00    -0.329 N 
ATOM     38 HE21 GLN A   2      10.698  -5.468  24.941  0.00  0.00    +0.145 HD
ATOM     39 HE22 GLN A   2       9.960  -6.844  25.682  0.00  0.00    +0.145 HD
ENDBRANCH  34  35
ENDBRANCH  33  34
ENDBRANCH   1  33
TORSDOF 17
ENDMDL
MODEL 6
REMARK VINA RESULT:      -6.1      3.274      7.839
REMARK  Name = LQSL-mmff94.pdb
REMARK  21 active torsions:
REMARK  status: ('A' for Active; 'I' for Inactive)
REMARK    1  A    between atoms: _1  and  _2
REMARK    2  A    between atoms: _2  and  _3
REMARK    3  A    between atoms: _2  and  _5
REMARK    4  A    between atoms: _5  and  _6
REMARK    5  A    between atoms: _6  and  _7
REMARK    6  A    between atoms: _6  and  _8
REMARK    7  A    between atoms: _20  and  _21
REMARK    8  A    between atoms: _21  and  _22
REMARK    9  A    between atoms: _21  and  _24
REMARK   10  A    between atoms: _24  and  _25
REMARK   11  A    between atoms: _25  and  _26
REMARK   12  A    between atoms: _37  and  _38
REMARK   13  A    between atoms: _38  and  _39
REMARK   14  A    between atoms: _38  and  _41
REMARK   15  A    between atoms: _41  and  _42
REMARK   16  A    between atoms: _48  and  _49
REMARK   17  A    between atoms: _49  and  _50
REMARK   18  A    between atoms: _49  and  _52
REMARK   19  A    between atoms: _52  and  _53
REMARK   20  A    between atoms: _53  and  _54
REMARK   21  A    between atoms: _53  and  _55
REMARK                            x       y       z     vdW  Elec       q    Type
REMARK                         _______ _______ _______ _____ _____    ______ ____
ROOT
ATOM      1  CA  GLN A   2       5.301  -4.219  26.812  0.00  0.00    +0.159 C 
ENDROOT
BRANCH   1   3
ATOM      2  C   LEU A   1       4.625  -6.203  25.479  0.00  0.00    +0.230 C 
ATOM      3  N   GLN A   2       5.256  -4.987  25.571  0.00  0.00    -0.303 N 
ATOM      4  H   GLN A   2       5.755  -4.603  24.773  0.00  0.00    +0.149 HD
ATOM      5  O   LEU A   1       4.061  -6.729  26.438  0.00  0.00    -0.274 OA
BRANCH   2   6
ATOM      6  CA  LEU A   1       4.691  -6.860  24.080  0.00  0.00    +0.138 C 
BRANCH   6   7
ATOM      7  N   LEU A   1       3.405  -7.523  23.791  0.00  0.00    -0.320 NA
ATOM      8  H1  LEU A   1       3.544  -8.533  23.874  0.00  0.00    +0.119 HD
ATOM      9  H2  LEU A   1       2.768  -7.310  24.565  0.00  0.00    +0.119 HD
ENDBRANCH   6   7
BRANCH   6  10
ATOM     10  CB  LEU A   1       5.021  -5.794  23.022  0.00  0.00    +0.031 C 
BRANCH  10  11
ATOM     11  CG  LEU A   1       6.386  -5.957  22.322  0.00  0.00    -0.015 C 
ATOM     12  CD2 LEU A   1       6.222  -5.739  20.816  0.00  0.00    +0.007 C 
ATOM     13  CD1 LEU A   1       7.439  -4.993  22.872  0.00  0.00    +0.007 C 
ENDBRANCH  10  11
ENDBRANCH   6  10
ENDBRANCH   2   6
ENDBRANCH   1   3
BRANCH   1  14
ATOM     14  C   GLN A   2       5.247  -2.735  26.409  0.00  0.00    +0.234 C 
ATOM     15  N   SER A   3       6.435  -2.061  26.514  0.00  0.00    -0.301 N 
ATOM     16  H   SER A   3       7.281  -2.532  26.836  0.00  0.00    +0.150 HD
ATOM     17  O   GLN A   2       4.223  -2.207  25.977  0.00  0.00    -0.274 OA
BRANCH  15  18
ATOM     18  CA  SER A   3       6.640  -0.736  25.924  0.00  0.00    +0.184 C 
BRANCH  18  19
ATOM     19  C   SER A   3       7.177  -0.969  24.504  0.00  0.00    +0.236 C 
ATOM     20  O   SER A   3       6.417  -1.168  23.557  0.00  0.00    -0.274 OA
ATOM     21  N   LEU A   4       8.539  -0.885  24.365  0.00  0.00    -0.304 N 
ATOM     22  H   LEU A   4       9.140  -0.827  25.184  0.00  0.00    +0.149 HD
BRANCH  21  23
ATOM     23  CA  LEU A   4       9.215  -1.083  23.088  0.00  0.00    +0.136 C 
BRANCH  23  24
ATOM     24  C   LEU A   4      10.385  -2.025  23.355  0.00  0.00    +0.245 C 
ATOM     25  O   LEU A   4      10.251  -3.163  23.804  0.00  0.00    -0.299 OA
ENDBRANCH  23  24
BRANCH  23  26
ATOM     26  CB  LEU A   4       9.765   0.226  22.502  0.00  0.00    +0.032 C 
BRANCH  26  27
ATOM     27  CG  LEU A   4       8.944   0.834  21.348  0.00  0.00    -0.015 C 
ATOM     28  CD2 LEU A   4       7.878   1.811  21.847  0.00  0.00    +0.007 C 
ATOM     29  CD1 LEU A   4       8.272  -0.282  20.543  0.00  0.00    +0.007 C 
ENDBRANCH  26  27
ENDBRANCH  23  26
ENDBRANCH  21  23
ENDBRANCH  18  19
BRANCH  18  30
ATOM     30  CB  SER A   3       7.586   0.136  26.753  0.00  0.00    +0.187 C 
BRANCH  30  31
ATOM     31  OG  SER A   3       8.739  -0.590  27.178  0.00  0.00    -0.393 OA
ATOM     32  H   SER A   3       9.399  -0.508  26.465  0.00  0.00    +0.209 HD
ENDBRANCH  30  31
ENDBRANCH  18  30
ENDBRANCH  15  18
ENDBRANCH   1  14
BRANCH   1  33
ATOM     33  CB  GLN A   2       6.585  -4.533  27.596  0.00  0.00    +0.041 C 
BRANCH  33  34
ATOM     34  CG  GLN A   2       7.596  -5.372  26.813  0.00  0.00    +0.098 C 
BRANCH  34  35
ATOM     35  CD  GLN A   2       8.869  -4.641  26.440  0.00  0.00    +0.211 C 
ATOM     36  OE1 GLN A   2       8.971  -3.420  26.518  0.00  0.00    -0.276 OA
ATOM     37  NE2 GLN A   2       9.880  -5.378  25.908  0.00  0.00    -0.329 N 
ATOM     38 HE21 GLN A   2       9.931  -6.384  25.966  0.00  0.00    +0.145 HD
ATOM     39 HE22 GLN A   2      10.737  -4.879  25.696  0.00  0.00    +0.145 HD
ENDBRANCH  34  35
ENDBRANCH  33  34
ENDBRANCH   1  33
TORSDOF 17
ENDMDL
MODEL 7
REMARK VINA RESULT:      -6.1      2.460      4.522
REMARK  Name = LQSL-mmff94.pdb
REMARK  21 active torsions:
REMARK  status: ('A' for Active; 'I' for Inactive)
REMARK    1  A    between atoms: _1  and  _2
REMARK    2  A    between atoms: _2  and  _3
REMARK    3  A    between atoms: _2  and  _5
REMARK    4  A    between atoms: _5  and  _6
REMARK    5  A    between atoms: _6  and  _7
REMARK    6  A    between atoms: _6  and  _8
REMARK    7  A    between atoms: _20  and  _21
REMARK    8  A    between atoms: _21  and  _22
REMARK    9  A    between atoms: _21  and  _24
REMARK   10  A    between atoms: _24  and  _25
REMARK   11  A    between atoms: _25  and  _26
REMARK   12  A    between atoms: _37  and  _38
REMARK   13  A    between atoms: _38  and  _39
REMARK   14  A    between atoms: _38  and  _41
REMARK   15  A    between atoms: _41  and  _42
REMARK   16  A    between atoms: _48  and  _49
REMARK   17  A    between atoms: _49  and  _50
REMARK   18  A    between atoms: _49  and  _52
REMARK   19  A    between atoms: _52  and  _53
REMARK   20  A    between atoms: _53  and  _54
REMARK   21  A    between atoms: _53  and  _55
REMARK                            x       y       z     vdW  Elec       q    Type
REMARK                         _______ _______ _______ _____ _____    ______ ____
ROOT
ATOM      1  CA  GLN A   2       6.230  -0.921  20.089  0.00  0.00    +0.159 C 
ENDROOT
BRANCH   1   3
ATOM      2  C   LEU A   1       7.862  -0.464  21.905  0.00  0.00    +0.230 C 
ATOM      3  N   GLN A   2       7.589  -0.722  20.585  0.00  0.00    -0.303 N 
ATOM      4  H   GLN A   2       8.337  -0.739  19.896  0.00  0.00    +0.149 HD
ATOM      5  O   LEU A   1       6.980  -0.377  22.758  0.00  0.00    -0.274 OA
BRANCH   2   6
ATOM      6  CA  LEU A   1       9.364  -0.281  22.230  0.00  0.00    +0.138 C 
BRANCH   6   7
ATOM      7  N   LEU A   1      10.154  -1.248  21.444  0.00  0.00    -0.320 NA
ATOM      8  H1  LEU A   1      10.119  -2.150  21.925  0.00  0.00    +0.119 HD
ATOM      9  H2  LEU A   1       9.643  -1.427  20.574  0.00  0.00    +0.119 HD
ENDBRANCH   6   7
BRANCH   6  10
ATOM     10  CB  LEU A   1       9.787   1.166  21.925  0.00  0.00    +0.031 C 
BRANCH  10  11
ATOM     11  CG  LEU A   1       9.491   2.191  23.039  0.00  0.00    -0.015 C 
ATOM     12  CD2 LEU A   1      10.749   3.012  23.331  0.00  0.00    +0.007 C 
ATOM     13  CD1 LEU A   1       8.336   3.125  22.677  0.00  0.00    +0.007 C 
ENDBRANCH  10  11
ENDBRANCH   6  10
ENDBRANCH   2   6
ENDBRANCH   1   3
BRANCH   1  14
ATOM     14  C   GLN A   2       5.927  -2.423  20.238  0.00  0.00    +0.234 C 
ATOM     15  N   SER A   3       6.166  -2.942  21.483  0.00  0.00    -0.301 N 
ATOM     16  H   SER A   3       6.516  -2.356  22.240  0.00  0.00    +0.150 HD
ATOM     17  O   GLN A   2       5.458  -3.093  19.319  0.00  0.00    -0.274 OA
BRANCH  15  18
ATOM     18  CA  SER A   3       5.686  -4.266  21.885  0.00  0.00    +0.184 C 
BRANCH  18  19
ATOM     19  C   SER A   3       5.618  -4.259  23.419  0.00  0.00    +0.236 C 
ATOM     20  O   SER A   3       4.989  -5.119  24.036  0.00  0.00    -0.274 OA
ATOM     21  N   LEU A   4       6.344  -3.274  24.039  0.00  0.00    -0.304 N 
ATOM     22  H   LEU A   4       6.761  -2.521  23.497  0.00  0.00    +0.149 HD
BRANCH  21  23
ATOM     23  CA  LEU A   4       6.387  -3.121  25.489  0.00  0.00    +0.136 C 
BRANCH  23  24
ATOM     24  C   LEU A   4       5.603  -1.854  25.817  0.00  0.00    +0.245 C 
ATOM     25  O   LEU A   4       4.396  -1.731  25.611  0.00  0.00    -0.299 OA
ENDBRANCH  23  24
BRANCH  23  26
ATOM     26  CB  LEU A   4       7.819  -2.961  26.022  0.00  0.00    +0.032 C 
BRANCH  26  27
ATOM     27  CG  LEU A   4       8.498  -4.260  26.500  0.00  0.00    -0.015 C 
ATOM     28  CD2 LEU A   4       9.351  -4.903  25.406  0.00  0.00    +0.007 C 
ATOM     29  CD1 LEU A   4       7.438  -5.259  26.970  0.00  0.00    +0.007 C 
ENDBRANCH  26  27
ENDBRANCH  23  26
ENDBRANCH  21  23
ENDBRANCH  18  19
BRANCH  18  30
ATOM     30  CB  SER A   3       6.573  -5.398  21.361  0.00  0.00    +0.187 C 
BRANCH  30  31
ATOM     31  OG  SER A   3       6.202  -6.660  21.914  0.00  0.00    -0.393 OA
ATOM     32  H   SER A   3       6.382  -6.609  22.871  0.00  0.00    +0.209 HD
ENDBRANCH  30  31
ENDBRANCH  18  30
ENDBRANCH  15  18
ENDBRANCH   1  14
BRANCH   1  33
ATOM     33  CB  GLN A   2       6.119  -0.476  18.622  0.00  0.00    +0.041 C 
BRANCH  33  34
ATOM     34  CG  GLN A   2       5.852   1.019  18.449  0.00  0.00    +0.098 C 
BRANCH  34  35
ATOM     35  CD  GLN A   2       4.902   1.614  19.470  0.00  0.00    +0.211 C 
ATOM     36  OE1 GLN A   2       3.687   1.633  19.301  0.00  0.00    -0.276 OA
ATOM     37  NE2 GLN A   2       5.452   2.230  20.550  0.00  0.00    -0.329 N 
ATOM     38 HE21 GLN A   2       6.413   2.112  20.834  0.00  0.00    +0.145 HD
ATOM     39 HE22 GLN A   2       4.803   2.591  21.239  0.00  0.00    +0.145 HD
ENDBRANCH  34  35
ENDBRANCH  33  34
ENDBRANCH   1  33
TORSDOF 17
ENDMDL
MODEL 8
REMARK VINA RESULT:      -6.1      2.188      3.305
REMARK  Name = LQSL-mmff94.pdb
REMARK  21 active torsions:
REMARK  status: ('A' for Active; 'I' for Inactive)
REMARK    1  A    between atoms: _1  and  _2
REMARK    2  A    between atoms: _2  and  _3
REMARK    3  A    between atoms: _2  and  _5
REMARK    4  A    between atoms: _5  and  _6
REMARK    5  A    between atoms: _6  and  _7
REMARK    6  A    between atoms: _6  and  _8
REMARK    7  A    between atoms: _20  and  _21
REMARK    8  A    between atoms: _21  and  _22
REMARK    9  A    between atoms: _21  and  _24
REMARK   10  A    between atoms: _24  and  _25
REMARK   11  A    between atoms: _25  and  _26
REMARK   12  A    between atoms: _37  and  _38
REMARK   13  A    between atoms: _38  and  _39
REMARK   14  A    between atoms: _38  and  _41
REMARK   15  A    between atoms: _41  and  _42
REMARK   16  A    between atoms: _48  and  _49
REMARK   17  A    between atoms: _49  and  _50
REMARK   18  A    between atoms: _49  and  _52
REMARK   19  A    between atoms: _52  and  _53
REMARK   20  A    between atoms: _53  and  _54
REMARK   21  A    between atoms: _53  and  _55
REMARK                            x       y       z     vdW  Elec       q    Type
REMARK                         _______ _______ _______ _____ _____    ______ ____
ROOT
ATOM      1  CA  GLN A   2       7.549  -0.060  21.041  0.00  0.00    +0.159 C 
ENDROOT
BRANCH   1   3
ATOM      2  C   LEU A   1       7.205   2.300  21.738  0.00  0.00    +0.230 C 
ATOM      3  N   GLN A   2       8.033   1.220  21.550  0.00  0.00    -0.303 N 
ATOM      4  H   GLN A   2       9.031   1.299  21.725  0.00  0.00    +0.149 HD
ATOM      5  O   LEU A   1       6.002   2.262  21.483  0.00  0.00    -0.274 OA
BRANCH   2   6
ATOM      6  CA  LEU A   1       7.909   3.565  22.283  0.00  0.00    +0.138 C 
BRANCH   6   7
ATOM      7  N   LEU A   1       7.191   4.765  21.809  0.00  0.00    -0.320 NA
ATOM      8  H1  LEU A   1       6.552   4.477  21.064  0.00  0.00    +0.119 HD
ATOM      9  H2  LEU A   1       6.558   5.060  22.559  0.00  0.00    +0.119 HD
ENDBRANCH   6   7
BRANCH   6  10
ATOM     10  CB  LEU A   1       7.956   3.511  23.819  0.00  0.00    +0.031 C 
BRANCH  10  11
ATOM     11  CG  LEU A   1       9.280   3.003  24.423  0.00  0.00    -0.015 C 
ATOM     12  CD2 LEU A   1       9.131   1.534  24.829  0.00  0.00    +0.007 C 
ATOM     13  CD1 LEU A   1      10.456   3.154  23.457  0.00  0.00    +0.007 C 
ENDBRANCH  10  11
ENDBRANCH   6  10
ENDBRANCH   2   6
ENDBRANCH   1   3
BRANCH   1  14
ATOM     14  C   GLN A   2       8.426  -1.147  21.687  0.00  0.00    +0.234 C 
ATOM     15  N   SER A   3       7.740  -2.113  22.375  0.00  0.00    -0.301 N 
ATOM     16  H   SER A   3       6.723  -2.093  22.437  0.00  0.00    +0.150 HD
ATOM     17  O   GLN A   2       9.649  -1.171  21.553  0.00  0.00    -0.274 OA
BRANCH  15  18
ATOM     18  CA  SER A   3       8.372  -3.358  22.817  0.00  0.00    +0.184 C 
BRANCH  18  19
ATOM     19  C   SER A   3       7.293  -4.448  22.738  0.00  0.00    +0.236 C 
ATOM     20  O   SER A   3       7.165  -5.150  21.734  0.00  0.00    -0.274 OA
ATOM     21  N   LEU A   4       6.533  -4.612  23.867  0.00  0.00    -0.304 N 
ATOM     22  H   LEU A   4       6.594  -3.945  24.633  0.00  0.00    +0.149 HD
BRANCH  21  23
ATOM     23  CA  LEU A   4       5.462  -5.598  23.961  0.00  0.00    +0.136 C 
BRANCH  23  24
ATOM     24  C   LEU A   4       4.185  -4.899  23.508  0.00  0.00    +0.245 C 
ATOM     25  O   LEU A   4       3.321  -5.443  22.819  0.00  0.00    -0.299 OA
ENDBRANCH  23  24
BRANCH  23  26
ATOM     26  CB  LEU A   4       5.257  -6.111  25.395  0.00  0.00    +0.032 C 
BRANCH  26  27
ATOM     27  CG  LEU A   4       5.577  -5.100  26.514  0.00  0.00    -0.015 C 
ATOM     28  CD2 LEU A   4       6.861  -5.454  27.264  0.00  0.00    +0.007 C 
ATOM     29  CD1 LEU A   4       4.411  -5.035  27.505  0.00  0.00    +0.007 C 
ENDBRANCH  26  27
ENDBRANCH  23  26
ENDBRANCH  21  23
ENDBRANCH  18  19
BRANCH  18  30
ATOM     30  CB  SER A   3       8.966  -3.250  24.224  0.00  0.00    +0.187 C 
BRANCH  30  31
ATOM     31  OG  SER A   3       9.605  -4.462  24.623  0.00  0.00    -0.393 OA
ATOM     32  H   SER A   3      10.229  -4.695  23.911  0.00  0.00    +0.209 HD
ENDBRANCH  30  31
ENDBRANCH  18  30
ENDBRANCH  15  18
ENDBRANCH   1  14
BRANCH   1  33
ATOM     33  CB  GLN A   2       7.651  -0.105  19.508  0.00  0.00    +0.041 C 
BRANCH  33  34
ATOM     34  CG  GLN A   2       6.303  -0.257  18.804  0.00  0.00    +0.098 C 
BRANCH  34  35
ATOM     35  CD  GLN A   2       5.787   1.006  18.145  0.00  0.00    +0.211 C 
ATOM     36  OE1 GLN A   2       6.286   1.461  17.119  0.00  0.00    -0.276 OA
ATOM     37  NE2 GLN A   2       4.807   1.692  18.790  0.00  0.00    -0.329 N 
ATOM     38 HE21 GLN A   2       4.247   1.302  19.533  0.00  0.00    +0.145 HD
ATOM     39 HE22 GLN A   2       4.450   2.515  18.319  0.00  0.00    +0.145 HD
ENDBRANCH  34  35
ENDBRANCH  33  34
ENDBRANCH   1  33
TORSDOF 17
ENDMDL
MODEL 9
REMARK VINA RESULT:      -6.1      1.439      2.231
REMARK  Name = LQSL-mmff94.pdb
REMARK  21 active torsions:
REMARK  status: ('A' for Active; 'I' for Inactive)
REMARK    1  A    between atoms: _1  and  _2
REMARK    2  A    between atoms: _2  and  _3
REMARK    3  A    between atoms: _2  and  _5
REMARK    4  A    between atoms: _5  and  _6
REMARK    5  A    between atoms: _6  and  _7
REMARK    6  A    between atoms: _6  and  _8
REMARK    7  A    between atoms: _20  and  _21
REMARK    8  A    between atoms: _21  and  _22
REMARK    9  A    between atoms: _21  and  _24
REMARK   10  A    between atoms: _24  and  _25
REMARK   11  A    between atoms: _25  and  _26
REMARK   12  A    between atoms: _37  and  _38
REMARK   13  A    between atoms: _38  and  _39
REMARK   14  A    between atoms: _38  and  _41
REMARK   15  A    between atoms: _41  and  _42
REMARK   16  A    between atoms: _48  and  _49
REMARK   17  A    between atoms: _49  and  _50
REMARK   18  A    between atoms: _49  and  _52
REMARK   19  A    between atoms: _52  and  _53
REMARK   20  A    between atoms: _53  and  _54
REMARK   21  A    between atoms: _53  and  _55
REMARK                            x       y       z     vdW  Elec       q    Type
REMARK                         _______ _______ _______ _____ _____    ______ ____
ROOT
ATOM      1  CA  GLN A   2       7.450   0.401  21.193  0.00  0.00    +0.159 C 
ENDROOT
BRANCH   1   3
ATOM      2  C   LEU A   1       6.532   2.323  22.471  0.00  0.00    +0.230 C 
ATOM      3  N   GLN A   2       7.240   1.830  21.402  0.00  0.00    -0.303 N 
ATOM      4  H   GLN A   2       7.606   2.459  20.692  0.00  0.00    +0.149 HD
ATOM      5  O   LEU A   1       6.023   1.592  23.319  0.00  0.00    -0.274 OA
BRANCH   2   6
ATOM      6  CA  LEU A   1       6.418   3.865  22.514  0.00  0.00    +0.138 C 
BRANCH   6   7
ATOM      7  N   LEU A   1       5.388   4.252  23.498  0.00  0.00    -0.320 NA
ATOM      8  H1  LEU A   1       4.474   4.157  23.051  0.00  0.00    +0.119 HD
ATOM      9  H2  LEU A   1       5.371   3.528  24.223  0.00  0.00    +0.119 HD
ENDBRANCH   6   7
BRANCH   6  10
ATOM     10  CB  LEU A   1       7.785   4.476  22.865  0.00  0.00    +0.031 C 
BRANCH  10  11
ATOM     11  CG  LEU A   1       8.445   3.928  24.146  0.00  0.00    -0.015 C 
ATOM     12  CD2 LEU A   1       9.751   3.213  23.788  0.00  0.00    +0.007 C 
ATOM     13  CD1 LEU A   1       8.723   5.026  25.173  0.00  0.00    +0.007 C 
ENDBRANCH  10  11
ENDBRANCH   6  10
ENDBRANCH   2   6
ENDBRANCH   1   3
BRANCH   1  14
ATOM     14  C   GLN A   2       8.697   0.019  22.010  0.00  0.00    +0.234 C 
ATOM     15  N   SER A   3       8.445  -0.410  23.286  0.00  0.00    -0.301 N 
ATOM     16  H   SER A   3       7.492  -0.466  23.645  0.00  0.00    +0.150 HD
ATOM     17  O   GLN A   2       9.830   0.050  21.533  0.00  0.00    -0.274 OA
BRANCH  15  18
ATOM     18  CA  SER A   3       9.465  -1.066  24.108  0.00  0.00    +0.184 C 
BRANCH  18  19
ATOM     19  C   SER A   3       9.210  -2.576  23.996  0.00  0.00    +0.236 C 
ATOM     20  O   SER A   3      10.120  -3.392  24.147  0.00  0.00    -0.274 OA
ATOM     21  N   LEU A   4       7.907  -2.942  23.774  0.00  0.00    -0.304 N 
ATOM     22  H   LEU A   4       7.204  -2.242  23.548  0.00  0.00    +0.149 HD
BRANCH  21  23
ATOM     23  CA  LEU A   4       7.491  -4.333  23.638  0.00  0.00    +0.136 C 
BRANCH  23  24
ATOM     24  C   LEU A   4       7.109  -4.533  22.175  0.00  0.00    +0.245 C 
ATOM     25  O   LEU A   4       7.217  -5.609  21.586  0.00  0.00    -0.299 OA
ENDBRANCH  23  24
BRANCH  23  26
ATOM     26  CB  LEU A   4       6.273  -4.672  24.511  0.00  0.00    +0.032 C 
BRANCH  26  27
ATOM     27  CG  LEU A   4       6.562  -5.562  25.737  0.00  0.00    -0.015 C 
ATOM     28  CD2 LEU A   4       5.302  -6.254  26.259  0.00  0.00    +0.007 C 
ATOM     29  CD1 LEU A   4       7.181  -4.721  26.857  0.00  0.00    +0.007 C 
ENDBRANCH  26  27
ENDBRANCH  23  26
ENDBRANCH  21  23
ENDBRANCH  18  19
BRANCH  18  30
ATOM     30  CB  SER A   3       9.441  -0.593  25.564  0.00  0.00    +0.187 C 
BRANCH  30  31
ATOM     31  OG  SER A   3       8.833  -1.557  26.423  0.00  0.00    -0.393 OA
ATOM     32  H   SER A   3       9.270  -1.473  27.290  0.00  0.00    +0.209 HD
ENDBRANCH  30  31
ENDBRANCH  18  30
ENDBRANCH  15  18
ENDBRANCH   1  14
BRANCH   1  33
ATOM     33  CB  GLN A   2       7.652   0.098  19.699  0.00  0.00    +0.041 C 
BRANCH  33  34
ATOM     34  CG  GLN A   2       6.351  -0.174  18.943  0.00  0.00    +0.098 C 
BRANCH  34  35
ATOM     35  CD  GLN A   2       5.802   1.015  18.181  0.00  0.00    +0.211 C 
ATOM     36  OE1 GLN A   2       6.313   1.418  17.140  0.00  0.00    -0.276 OA
ATOM     37  NE2 GLN A   2       4.774   1.700  18.748  0.00  0.00    -0.329 N 
ATOM     38 HE21 GLN A   2       4.208   1.339  19.501  0.00  0.00    +0.145 HD
ATOM     39 HE22 GLN A   2       4.397   2.471  18.209  0.00  0.00    +0.145 HD
ENDBRANCH  34  35
ENDBRANCH  33  34
ENDBRANCH   1  33
TORSDOF 17
ENDMDL
MODEL 10
REMARK VINA RESULT:      -6.0      2.236      3.693
REMARK  Name = LQSL-mmff94.pdb
REMARK  21 active torsions:
REMARK  status: ('A' for Active; 'I' for Inactive)
REMARK    1  A    between atoms: _1  and  _2
REMARK    2  A    between atoms: _2  and  _3
REMARK    3  A    between atoms: _2  and  _5
REMARK    4  A    between atoms: _5  and  _6
REMARK    5  A    between atoms: _6  and  _7
REMARK    6  A    between atoms: _6  and  _8
REMARK    7  A    between atoms: _20  and  _21
REMARK    8  A    between atoms: _21  and  _22
REMARK    9  A    between atoms: _21  and  _24
REMARK   10  A    between atoms: _24  and  _25
REMARK   11  A    between atoms: _25  and  _26
REMARK   12  A    between atoms: _37  and  _38
REMARK   13  A    between atoms: _38  and  _39
REMARK   14  A    between atoms: _38  and  _41
REMARK   15  A    between atoms: _41  and  _42
REMARK   16  A    between atoms: _48  and  _49
REMARK   17  A    between atoms: _49  and  _50
REMARK   18  A    between atoms: _49  and  _52
REMARK   19  A    between atoms: _52  and  _53
REMARK   20  A    between atoms: _53  and  _54
REMARK   21  A    between atoms: _53  and  _55
REMARK                            x       y       z     vdW  Elec       q    Type
REMARK                         _______ _______ _______ _____ _____    ______ ____
ROOT
ATOM      1  CA  GLN A   2       8.053  -0.715  22.827  0.00  0.00    +0.159 C 
ENDROOT
BRANCH   1   3
ATOM      2  C   LEU A   1       8.895   1.473  23.649  0.00  0.00    +0.230 C 
ATOM      3  N   GLN A   2       8.882   0.480  22.701  0.00  0.00    -0.303 N 
ATOM      4  H   GLN A   2       9.429   0.574  21.849  0.00  0.00    +0.149 HD
ATOM      5  O   LEU A   1       8.203   1.425  24.665  0.00  0.00    -0.274 OA
BRANCH   2   6
ATOM      6  CA  LEU A   1       9.837   2.658  23.331  0.00  0.00    +0.138 C 
BRANCH   6   7
ATOM      7  N   LEU A   1      10.375   2.500  21.966  0.00  0.00    -0.320 NA
ATOM      8  H1  LEU A   1      11.384   2.663  22.003  0.00  0.00    +0.119 HD
ATOM      9  H2  LEU A   1      10.308   1.507  21.722  0.00  0.00    +0.119 HD
ENDBRANCH   6   7
BRANCH   6  10
ATOM     10  CB  LEU A   1       9.073   3.983  23.481  0.00  0.00    +0.031 C 
BRANCH  10  11
ATOM     11  CG  LEU A   1       9.668   4.979  24.498  0.00  0.00    -0.015 C 
ATOM     12  CD2 LEU A   1      10.713   5.859  23.808  0.00  0.00    +0.007 C 
ATOM     13  CD1 LEU A   1       8.597   5.859  25.144  0.00  0.00    +0.007 C 
ENDBRANCH  10  11
ENDBRANCH   6  10
ENDBRANCH   2   6
ENDBRANCH   1   3
BRANCH   1  14
ATOM     14  C   GLN A   2       8.954  -1.811  23.422  0.00  0.00    +0.234 C 
ATOM     15  N   SER A   3       8.396  -2.529  24.446  0.00  0.00    -0.301 N 
ATOM     16  H   SER A   3       7.449  -2.334  24.771  0.00  0.00    +0.150 HD
ATOM     17  O   GLN A   2      10.074  -2.055  22.975  0.00  0.00    -0.274 OA
BRANCH  15  18
ATOM     18  CA  SER A   3       8.988  -3.773  24.945  0.00  0.00    +0.184 C 
BRANCH  18  19
ATOM     19  C   SER A   3       8.362  -4.912  24.127  0.00  0.00    +0.236 C 
ATOM     20  O   SER A   3       9.017  -5.905  23.807  0.00  0.00    -0.274 OA
ATOM     21  N   LEU A   4       7.031  -4.768  23.832  0.00  0.00    -0.304 N 
ATOM     22  H   LEU A   4       6.552  -3.890  24.018  0.00  0.00    +0.149 HD
BRANCH  21  23
ATOM     23  CA  LEU A   4       6.283  -5.754  23.060  0.00  0.00    +0.136 C 
BRANCH  23  24
ATOM     24  C   LEU A   4       6.328  -5.295  21.606  0.00  0.00    +0.245 C 
ATOM     25  O   LEU A   4       5.649  -4.368  21.166  0.00  0.00    -0.299 OA
ENDBRANCH  23  24
BRANCH  23  26
ATOM     26  CB  LEU A   4       4.813  -5.853  23.496  0.00  0.00    +0.032 C 
BRANCH  26  27
ATOM     27  CG  LEU A   4       4.481  -7.015  24.453  0.00  0.00    -0.015 C 
ATOM     28  CD2 LEU A   4       3.010  -7.425  24.376  0.00  0.00    +0.007 C 
ATOM     29  CD1 LEU A   4       4.823  -6.619  25.892  0.00  0.00    +0.007 C 
ENDBRANCH  26  27
ENDBRANCH  23  26
ENDBRANCH  21  23
ENDBRANCH  18  19
BRANCH  18  30
ATOM     30  CB  SER A   3       8.769  -3.967  26.447  0.00  0.00    +0.187 C 
BRANCH  30  31
ATOM     31  OG  SER A   3       8.563  -5.340  26.779  0.00  0.00    -0.393 OA
ATOM     32  H   SER A   3       8.787  -5.435  27.723  0.00  0.00    +0.209 HD
ENDBRANCH  30  31
ENDBRANCH  18  30
ENDBRANCH  15  18
ENDBRANCH   1  14
BRANCH   1  33
ATOM     33  CB  GLN A   2       7.499  -1.135  21.456  0.00  0.00    +0.041 C 
BRANCH  33  34
ATOM     34  CG  GLN A   2       8.090  -0.350  20.285  0.00  0.00    +0.098 C 
BRANCH  34  35
ATOM     35  CD  GLN A   2       7.068   0.355  19.417  0.00  0.00    +0.211 C 
ATOM     36  OE1 GLN A   2       7.258   0.568  18.223  0.00  0.00    -0.276 OA
ATOM     37  NE2 GLN A   2       5.958   0.846  20.030  0.00  0.00    -0.329 N 
ATOM     38 HE21 GLN A   2       5.662   0.572  20.955  0.00  0.00    +0.145 HD
ATOM     39 HE22 GLN A   2       5.269   1.284  19.430  0.00  0.00    +0.145 HD
ENDBRANCH  34  35
ENDBRANCH  33  34
ENDBRANCH   1  33
TORSDOF 17
ENDMDL
MODEL 11
REMARK VINA RESULT:      -6.0      2.394      6.313
REMARK  Name = LQSL-mmff94.pdb
REMARK  21 active torsions:
REMARK  status: ('A' for Active; 'I' for Inactive)
REMARK    1  A    between atoms: _1  and  _2
REMARK    2  A    between atoms: _2  and  _3
REMARK    3  A    between atoms: _2  and  _5
REMARK    4  A    between atoms: _5  and  _6
REMARK    5  A    between atoms: _6  and  _7
REMARK    6  A    between atoms: _6  and  _8
REMARK    7  A    between atoms: _20  and  _21
REMARK    8  A    between atoms: _21  and  _22
REMARK    9  A    between atoms: _21  and  _24
REMARK   10  A    between atoms: _24  and  _25
REMARK   11  A    between atoms: _25  and  _26
REMARK   12  A    between atoms: _37  and  _38
REMARK   13  A    between atoms: _38  and  _39
REMARK   14  A    between atoms: _38  and  _41
REMARK   15  A    between atoms: _41  and  _42
REMARK   16  A    between atoms: _48  and  _49
REMARK   17  A    between atoms: _49  and  _50
REMARK   18  A    between atoms: _49  and  _52
REMARK   19  A    between atoms: _52  and  _53
REMARK   20  A    between atoms: _53  and  _54
REMARK   21  A    between atoms: _53  and  _55
REMARK                            x       y       z     vdW  Elec       q    Type
REMARK                         _______ _______ _______ _____ _____    ______ ____
ROOT
ATOM      1  CA  GLN A   2       9.748  -2.107  23.490  0.00  0.00    +0.159 C 
ENDROOT
BRANCH   1   3
ATOM      2  C   LEU A   1       9.064  -4.171  24.693  0.00  0.00    +0.230 C 
ATOM      3  N   GLN A   2       8.752  -2.952  24.143  0.00  0.00    -0.303 N 
ATOM      4  H   GLN A   2       7.791  -2.618  24.139  0.00  0.00    +0.149 HD
ATOM      5  O   LEU A   1      10.203  -4.635  24.666  0.00  0.00    -0.274 OA
BRANCH   2   6
ATOM      6  CA  LEU A   1       7.869  -4.914  25.335  0.00  0.00    +0.138 C 
BRANCH   6   7
ATOM      7  N   LEU A   1       8.298  -5.512  26.615  0.00  0.00    -0.320 NA
ATOM      8  H1  LEU A   1       9.082  -4.963  26.973  0.00  0.00    +0.119 HD
ATOM      9  H2  LEU A   1       7.556  -5.336  27.300  0.00  0.00    +0.119 HD
ENDBRANCH   6   7
BRANCH   6  10
ATOM     10  CB  LEU A   1       6.699  -3.937  25.538  0.00  0.00    +0.031 C 
BRANCH  10  11
ATOM     11  CG  LEU A   1       5.390  -4.313  24.814  0.00  0.00    -0.015 C 
ATOM     12  CD2 LEU A   1       4.197  -4.038  25.732  0.00  0.00    +0.007 C 
ATOM     13  CD1 LEU A   1       5.216  -3.554  23.498  0.00  0.00    +0.007 C 
ENDBRANCH  10  11
ENDBRANCH   6  10
ENDBRANCH   2   6
ENDBRANCH   1   3
BRANCH   1  14
ATOM     14  C   GLN A   2       9.839  -0.816  24.323  0.00  0.00    +0.234 C 
ATOM     15  N   SER A   3      10.259   0.291  23.634  0.00  0.00    -0.301 N 
ATOM     16  H   SER A   3      10.486   0.238  22.642  0.00  0.00    +0.150 HD
ATOM     17  O   GLN A   2       9.511  -0.774  25.508  0.00  0.00    -0.274 OA
BRANCH  15  18
ATOM     18  CA  SER A   3      10.146   1.645  24.182  0.00  0.00    +0.184 C 
BRANCH  18  19
ATOM     19  C   SER A   3       8.647   1.910  24.384  0.00  0.00    +0.236 C 
ATOM     20  O   SER A   3       7.868   1.938  23.431  0.00  0.00    -0.274 OA
ATOM     21  N   LEU A   4       8.243   2.056  25.686  0.00  0.00    -0.304 N 
ATOM     22  H   LEU A   4       8.927   2.135  26.435  0.00  0.00    +0.149 HD
BRANCH  21  23
ATOM     23  CA  LEU A   4       6.856   2.317  26.056  0.00  0.00    +0.136 C 
BRANCH  23  24
ATOM     24  C   LEU A   4       6.833   3.690  26.722  0.00  0.00    +0.245 C 
ATOM     25  O   LEU A   4       7.803   4.447  26.748  0.00  0.00    -0.299 OA
ENDBRANCH  23  24
BRANCH  23  26
ATOM     26  CB  LEU A   4       6.307   1.283  27.050  0.00  0.00    +0.032 C 
BRANCH  26  27
ATOM     27  CG  LEU A   4       6.242  -0.168  26.531  0.00  0.00    -0.015 C 
ATOM     28  CD2 LEU A   4       5.652  -0.253  25.123  0.00  0.00    +0.007 C 
ATOM     29  CD1 LEU A   4       5.404  -1.025  27.485  0.00  0.00    +0.007 C 
ENDBRANCH  26  27
ENDBRANCH  23  26
ENDBRANCH  21  23
ENDBRANCH  18  19
BRANCH  18  30
ATOM     30  CB  SER A   3      10.792   2.699  23.280  0.00  0.00    +0.187 C 
BRANCH  30  31
ATOM     31  OG  SER A   3      10.419   2.526  21.913  0.00  0.00    -0.393 OA
ATOM     32  H   SER A   3      11.002   3.107  21.390  0.00  0.00    +0.209 HD
ENDBRANCH  30  31
ENDBRANCH  18  30
ENDBRANCH  15  18
ENDBRANCH   1  14
BRANCH   1  33
ATOM     33  CB  GLN A   2       9.333  -1.804  22.042  0.00  0.00    +0.041 C 
BRANCH  33  34
ATOM     34  CG  GLN A   2       7.863  -1.413  21.890  0.00  0.00    +0.098 C 
BRANCH  34  35
ATOM     35  CD  GLN A   2       7.587  -0.398  20.799  0.00  0.00    +0.211 C 
ATOM     36  OE1 GLN A   2       6.689  -0.549  19.976  0.00  0.00    -0.276 OA
ATOM     37  NE2 GLN A   2       8.444   0.652  20.692  0.00  0.00    -0.329 N 
ATOM     38 HE21 GLN A   2       9.090   0.924  21.418  0.00  0.00    +0.145 HD
ATOM     39 HE22 GLN A   2       8.225   1.339  19.980  0.00  0.00    +0.145 HD
ENDBRANCH  34  35
ENDBRANCH  33  34
ENDBRANCH   1  33
TORSDOF 17
ENDMDL
MODEL 12
REMARK VINA RESULT:      -6.0      2.708      5.438
REMARK  Name = LQSL-mmff94.pdb
REMARK  21 active torsions:
REMARK  status: ('A' for Active; 'I' for Inactive)
REMARK    1  A    between atoms: _1  and  _2
REMARK    2  A    between atoms: _2  and  _3
REMARK    3  A    between atoms: _2  and  _5
REMARK    4  A    between atoms: _5  and  _6
REMARK    5  A    between atoms: _6  and  _7
REMARK    6  A    between atoms: _6  and  _8
REMARK    7  A    between atoms: _20  and  _21
REMARK    8  A    between atoms: _21  and  _22
REMARK    9  A    between atoms: _21  and  _24
REMARK   10  A    between atoms: _24  and  _25
REMARK   11  A    between atoms: _25  and  _26
REMARK   12  A    between atoms: _37  and  _38
REMARK   13  A    between atoms: _38  and  _39
REMARK   14  A    between atoms: _38  and  _41
REMARK   15  A    between atoms: _41  and  _42
REMARK   16  A    between atoms: _48  and  _49
REMARK   17  A    between atoms: _49  and  _50
REMARK   18  A    between atoms: _49  and  _52
REMARK   19  A    between atoms: _52  and  _53
REMARK   20  A    between atoms: _53  and  _54
REMARK   21  A    between atoms: _53  and  _55
REMARK                            x       y       z     vdW  Elec       q    Type
REMARK                         _______ _______ _______ _____ _____    ______ ____
ROOT
ATOM      1  CA  GLN A   2       9.125  -0.785  24.513  0.00  0.00    +0.159 C 
ENDROOT
BRANCH   1   3
ATOM      2  C   LEU A   1       8.387  -1.125  22.165  0.00  0.00    +0.230 C 
ATOM      3  N   GLN A   2       8.115  -0.751  23.458  0.00  0.00    -0.303 N 
ATOM      4  H   GLN A   2       7.197  -0.393  23.710  0.00  0.00    +0.149 HD
ATOM      5  O   LEU A   1       9.501  -1.507  21.808  0.00  0.00    -0.274 OA
BRANCH   2   6
ATOM      6  CA  LEU A   1       7.186  -1.015  21.196  0.00  0.00    +0.138 C 
BRANCH   6   7
ATOM      7  N   LEU A   1       6.065  -1.822  21.715  0.00  0.00    -0.320 NA
ATOM      8  H1  LEU A   1       6.456  -2.656  22.161  0.00  0.00    +0.119 HD
ATOM      9  H2  LEU A   1       5.654  -1.308  22.500  0.00  0.00    +0.119 HD
ENDBRANCH   6   7
BRANCH   6  10
ATOM     10  CB  LEU A   1       6.785   0.460  21.032  0.00  0.00    +0.031 C 
BRANCH  10  11
ATOM     11  CG  LEU A   1       6.643   0.950  19.577  0.00  0.00    -0.015 C 
ATOM     12  CD2 LEU A   1       7.512   0.089  18.656  0.00  0.00    +0.007 C 
ATOM     13  CD1 LEU A   1       5.193   0.921  19.093  0.00  0.00    +0.007 C 
ENDBRANCH  10  11
ENDBRANCH   6  10
ENDBRANCH   2   6
ENDBRANCH   1   3
BRANCH   1  14
ATOM     14  C   GLN A   2       8.480  -1.505  25.710  0.00  0.00    +0.234 C 
ATOM     15  N   SER A   3       7.516  -2.423  25.386  0.00  0.00    -0.301 N 
ATOM     16  H   SER A   3       7.264  -2.601  24.414  0.00  0.00    +0.150 HD
ATOM     17  O   GLN A   2       8.840  -1.305  26.870  0.00  0.00    -0.274 OA
BRANCH  15  18
ATOM     18  CA  SER A   3       6.995  -3.389  26.356  0.00  0.00    +0.184 C 
BRANCH  18  19
ATOM     19  C   SER A   3       6.767  -4.699  25.588  0.00  0.00    +0.236 C 
ATOM     20  O   SER A   3       6.978  -5.793  26.112  0.00  0.00    -0.274 OA
ATOM     21  N   LEU A   4       6.268  -4.562  24.319  0.00  0.00    -0.304 N 
ATOM     22  H   LEU A   4       6.208  -3.645  23.882  0.00  0.00    +0.149 HD
BRANCH  21  23
ATOM     23  CA  LEU A   4       5.997  -5.703  23.450  0.00  0.00    +0.136 C 
BRANCH  23  24
ATOM     24  C   LEU A   4       6.936  -5.574  22.255  0.00  0.00    +0.245 C 
ATOM     25  O   LEU A   4       7.490  -4.522  21.938  0.00  0.00    -0.299 OA
ENDBRANCH  23  24
BRANCH  23  26
ATOM     26  CB  LEU A   4       4.550  -5.721  22.935  0.00  0.00    +0.032 C 
BRANCH  26  27
ATOM     27  CG  LEU A   4       3.465  -5.940  24.009  0.00  0.00    -0.015 C 
ATOM     28  CD2 LEU A   4       3.741  -7.175  24.866  0.00  0.00    +0.007 C 
ATOM     29  CD1 LEU A   4       2.094  -6.080  23.342  0.00  0.00    +0.007 C 
ENDBRANCH  26  27
ENDBRANCH  23  26
ENDBRANCH  21  23
ENDBRANCH  18  19
BRANCH  18  30
ATOM     30  CB  SER A   3       5.715  -2.902  27.040  0.00  0.00    +0.187 C 
BRANCH  30  31
ATOM     31  OG  SER A   3       4.671  -3.872  26.961  0.00  0.00    -0.393 OA
ATOM     32  H   SER A   3       4.992  -4.578  26.370  0.00  0.00    +0.209 HD
ENDBRANCH  30  31
ENDBRANCH  18  30
ENDBRANCH  15  18
ENDBRANCH   1  14
BRANCH   1  33
ATOM     33  CB  GLN A   2       9.558   0.640  24.891  0.00  0.00    +0.041 C 
BRANCH  33  34
ATOM     34  CG  GLN A   2      10.674   1.200  24.008  0.00  0.00    +0.098 C 
BRANCH  34  35
ATOM     35  CD  GLN A   2      10.253   2.343  23.107  0.00  0.00    +0.211 C 
ATOM     36  OE1 GLN A   2       9.955   3.450  23.548  0.00  0.00    -0.276 OA
ATOM     37  NE2 GLN A   2      10.112   2.075  21.782  0.00  0.00    -0.329 N 
ATOM     38 HE21 GLN A   2      10.490   1.254  21.333  0.00  0.00    +0.145 HD
ATOM     39 HE22 GLN A   2       9.864   2.858  21.189  0.00  0.00    +0.145 HD
ENDBRANCH  34  35
ENDBRANCH  33  34
ENDBRANCH   1  33
TORSDOF 17
ENDMDL
MODEL 13
REMARK VINA RESULT:      -6.0      2.741      3.943
REMARK  Name = LQSL-mmff94.pdb
REMARK  21 active torsions:
REMARK  status: ('A' for Active; 'I' for Inactive)
REMARK    1  A    between atoms: _1  and  _2
REMARK    2  A    between atoms: _2  and  _3
REMARK    3  A    between atoms: _2  and  _5
REMARK    4  A    between atoms: _5  and  _6
REMARK    5  A    between atoms: _6  and  _7
REMARK    6  A    between atoms: _6  and  _8
REMARK    7  A    between atoms: _20  and  _21
REMARK    8  A    between atoms: _21  and  _22
REMARK    9  A    between atoms: _21  and  _24
REMARK   10  A    between atoms: _24  and  _25
REMARK   11  A    between atoms: _25  and  _26
REMARK   12  A    between atoms: _37  and  _38
REMARK   13  A    between atoms: _38  and  _39
REMARK   14  A    between atoms: _38  and  _41
REMARK   15  A    between atoms: _41  and  _42
REMARK   16  A    between atoms: _48  and  _49
REMARK   17  A    between atoms: _49  and  _50
REMARK   18  A    between atoms: _49  and  _52
REMARK   19  A    between atoms: _52  and  _53
REMARK   20  A    between atoms: _53  and  _54
REMARK   21  A    between atoms: _53  and  _55
REMARK                            x       y       z     vdW  Elec       q    Type
REMARK                         _______ _______ _______ _____ _____    ______ ____
ROOT
ATOM      1  CA  GLN A   2       7.685  -1.396  22.374  0.00  0.00    +0.159 C 
ENDROOT
BRANCH   1   3
ATOM      2  C   LEU A   1       7.987   0.438  24.022  0.00  0.00    +0.230 C 
ATOM      3  N   GLN A   2       8.444  -0.704  23.411  0.00  0.00    -0.303 N 
ATOM      4  H   GLN A   2       9.360  -1.081  23.641  0.00  0.00    +0.149 HD
ATOM      5  O   LEU A   1       6.911   0.957  23.730  0.00  0.00    -0.274 OA
BRANCH   2   6
ATOM      6  CA  LEU A   1       8.938   1.022  25.094  0.00  0.00    +0.138 C 
BRANCH   6   7
ATOM      7  N   LEU A   1       8.971   0.118  26.261  0.00  0.00    -0.320 NA
ATOM      8  H1  LEU A   1       8.276   0.448  26.934  0.00  0.00    +0.119 HD
ATOM      9  H2  LEU A   1       8.595  -0.786  25.959  0.00  0.00    +0.119 HD
ENDBRANCH   6   7
BRANCH   6  10
ATOM     10  CB  LEU A   1      10.341   1.211  24.494  0.00  0.00    +0.031 C 
BRANCH  10  11
ATOM     11  CG  LEU A   1      10.515   2.455  23.599  0.00  0.00    -0.015 C 
ATOM     12  CD2 LEU A   1      10.305   2.069  22.132  0.00  0.00    +0.007 C 
ATOM     13  CD1 LEU A   1       9.555   3.583  23.978  0.00  0.00    +0.007 C 
ENDBRANCH  10  11
ENDBRANCH   6  10
ENDBRANCH   2   6
ENDBRANCH   1   3
BRANCH   1  14
ATOM     14  C   GLN A   2       7.736  -2.894  22.721  0.00  0.00    +0.234 C 
ATOM     15  N   SER A   3       8.379  -3.197  23.892  0.00  0.00    -0.301 N 
ATOM     16  H   SER A   3       8.783  -2.464  24.476  0.00  0.00    +0.150 HD
ATOM     17  O   GLN A   2       7.197  -3.750  22.021  0.00  0.00    -0.274 OA
BRANCH  15  18
ATOM     18  CA  SER A   3       8.291  -4.519  24.516  0.00  0.00    +0.184 C 
BRANCH  18  19
ATOM     19  C   SER A   3       7.093  -4.470  25.475  0.00  0.00    +0.236 C 
ATOM     20  O   SER A   3       6.670  -3.402  25.917  0.00  0.00    -0.274 OA
ATOM     21  N   LEU A   4       6.508  -5.679  25.754  0.00  0.00    -0.304 N 
ATOM     22  H   LEU A   4       6.949  -6.547  25.459  0.00  0.00    +0.149 HD
BRANCH  21  23
ATOM     23  CA  LEU A   4       5.364  -5.814  26.648  0.00  0.00    +0.136 C 
BRANCH  23  24
ATOM     24  C   LEU A   4       5.924  -6.158  28.025  0.00  0.00    +0.245 C 
ATOM     25  O   LEU A   4       7.124  -6.122  28.297  0.00  0.00    -0.299 OA
ENDBRANCH  23  24
BRANCH  23  26
ATOM     26  CB  LEU A   4       4.407  -6.935  26.216  0.00  0.00    +0.032 C 
BRANCH  26  27
ATOM     27  CG  LEU A   4       3.776  -6.768  24.819  0.00  0.00    -0.015 C 
ATOM     28  CD2 LEU A   4       3.173  -5.377  24.619  0.00  0.00    +0.007 C 
ATOM     29  CD1 LEU A   4       2.690  -7.827  24.608  0.00  0.00    +0.007 C 
ENDBRANCH  26  27
ENDBRANCH  23  26
ENDBRANCH  21  23
ENDBRANCH  18  19
BRANCH  18  30
ATOM     30  CB  SER A   3       9.581  -4.915  25.239  0.00  0.00    +0.187 C 
BRANCH  30  31
ATOM     31  OG  SER A   3       9.374  -5.072  26.642  0.00  0.00    -0.393 OA
ATOM     32  H   SER A   3       9.823  -4.323  27.075  0.00  0.00    +0.209 HD
ENDBRANCH  30  31
ENDBRANCH  18  30
ENDBRANCH  15  18
ENDBRANCH   1  14
BRANCH   1  33
ATOM     33  CB  GLN A   2       8.294  -1.126  20.988  0.00  0.00    +0.041 C 
BRANCH  33  34
ATOM     34  CG  GLN A   2       7.772   0.147  20.322  0.00  0.00    +0.098 C 
BRANCH  34  35
ATOM     35  CD  GLN A   2       6.788  -0.088  19.194  0.00  0.00    +0.211 C 
ATOM     36  OE1 GLN A   2       6.952   0.383  18.073  0.00  0.00    -0.276 OA
ATOM     37  NE2 GLN A   2       5.644  -0.760  19.493  0.00  0.00    -0.329 N 
ATOM     38 HE21 GLN A   2       5.518  -1.307  20.331  0.00  0.00    +0.145 HD
ATOM     39 HE22 GLN A   2       5.013  -0.938  18.720  0.00  0.00    +0.145 HD
ENDBRANCH  34  35
ENDBRANCH  33  34
ENDBRANCH   1  33
TORSDOF 17
ENDMDL
MODEL 14
REMARK VINA RESULT:      -6.0      2.173      3.932
REMARK  Name = LQSL-mmff94.pdb
REMARK  21 active torsions:
REMARK  status: ('A' for Active; 'I' for Inactive)
REMARK    1  A    between atoms: _1  and  _2
REMARK    2  A    between atoms: _2  and  _3
REMARK    3  A    between atoms: _2  and  _5
REMARK    4  A    between atoms: _5  and  _6
REMARK    5  A    between atoms: _6  and  _7
REMARK    6  A    between atoms: _6  and  _8
REMARK    7  A    between atoms: _20  and  _21
REMARK    8  A    between atoms: _21  and  _22
REMARK    9  A    between atoms: _21  and  _24
REMARK   10  A    between atoms: _24  and  _25
REMARK   11  A    between atoms: _25  and  _26
REMARK   12  A    between atoms: _37  and  _38
REMARK   13  A    between atoms: _38  and  _39
REMARK   14  A    between atoms: _38  and  _41
REMARK   15  A    between atoms: _41  and  _42
REMARK   16  A    between atoms: _48  and  _49
REMARK   17  A    between atoms: _49  and  _50
REMARK   18  A    between atoms: _49  and  _52
REMARK   19  A    between atoms: _52  and  _53
REMARK   20  A    between atoms: _53  and  _54
REMARK   21  A    between atoms: _53  and  _55
REMARK                            x       y       z     vdW  Elec       q    Type
REMARK                         _______ _______ _______ _____ _____    ______ ____
ROOT
ATOM      1  CA  GLN A   2       7.492  -0.202  21.410  0.00  0.00    +0.159 C 
ENDROOT
BRANCH   1   3
ATOM      2  C   LEU A   1       8.007   0.738  23.651  0.00  0.00    +0.230 C 
ATOM      3  N   GLN A   2       8.390   0.438  22.367  0.00  0.00    -0.303 N 
ATOM      4  H   GLN A   2       9.313   0.698  22.030  0.00  0.00    +0.149 HD
ATOM      5  O   LEU A   1       6.879   0.493  24.078  0.00  0.00    -0.274 OA
BRANCH   2   6
ATOM      6  CA  LEU A   1       9.101   1.417  24.509  0.00  0.00    +0.138 C 
BRANCH   6   7
ATOM      7  N   LEU A   1       9.592   0.460  25.520  0.00  0.00    -0.320 NA
ATOM      8  H1  LEU A   1       8.781  -0.015  25.924  0.00  0.00    +0.119 HD
ATOM      9  H2  LEU A   1      10.078  -0.291  25.021  0.00  0.00    +0.119 HD
ENDBRANCH   6   7
BRANCH   6  10
ATOM     10  CB  LEU A   1      10.241   1.906  23.602  0.00  0.00    +0.031 C 
BRANCH  10  11
ATOM     11  CG  LEU A   1      10.239   3.417  23.292  0.00  0.00    -0.015 C 
ATOM     12  CD2 LEU A   1       9.306   4.141  24.266  0.00  0.00    +0.007 C 
ATOM     13  CD1 LEU A   1      11.639   4.028  23.367  0.00  0.00    +0.007 C 
ENDBRANCH  10  11
ENDBRANCH   6  10
ENDBRANCH   2   6
ENDBRANCH   1   3
BRANCH   1  14
ATOM     14  C   GLN A   2       7.261  -1.636  21.919  0.00  0.00    +0.234 C 
ATOM     15  N   SER A   3       5.973  -1.921  22.284  0.00  0.00    -0.301 N 
ATOM     16  H   SER A   3       5.236  -1.220  22.212  0.00  0.00    +0.150 HD
ATOM     17  O   GLN A   2       8.160  -2.475  21.948  0.00  0.00    -0.274 OA
BRANCH  15  18
ATOM     18  CA  SER A   3       5.512  -3.291  22.528  0.00  0.00    +0.184 C 
BRANCH  18  19
ATOM     19  C   SER A   3       5.736  -3.567  24.022  0.00  0.00    +0.236 C 
ATOM     20  O   SER A   3       5.185  -4.511  24.588  0.00  0.00    -0.274 OA
ATOM     21  N   LEU A   4       6.622  -2.732  24.652  0.00  0.00    -0.304 N 
ATOM     22  H   LEU A   4       6.973  -1.900  24.182  0.00  0.00    +0.149 HD
BRANCH  21  23
ATOM     23  CA  LEU A   4       6.948  -2.851  26.069  0.00  0.00    +0.136 C 
BRANCH  23  24
ATOM     24  C   LEU A   4       6.525  -1.540  26.726  0.00  0.00    +0.245 C 
ATOM     25  O   LEU A   4       7.324  -0.712  27.163  0.00  0.00    -0.299 OA
ENDBRANCH  23  24
BRANCH  23  26
ATOM     26  CB  LEU A   4       8.450  -3.058  26.314  0.00  0.00    +0.032 C 
BRANCH  26  27
ATOM     27  CG  LEU A   4       8.886  -4.513  26.575  0.00  0.00    -0.015 C 
ATOM     28  CD2 LEU A   4       9.534  -5.153  25.346  0.00  0.00    +0.007 C 
ATOM     29  CD1 LEU A   4       7.677  -5.350  27.005  0.00  0.00    +0.007 C 
ENDBRANCH  26  27
ENDBRANCH  23  26
ENDBRANCH  21  23
ENDBRANCH  18  19
BRANCH  18  30
ATOM     30  CB  SER A   3       6.228  -4.317  21.648  0.00  0.00    +0.187 C 
BRANCH  30  31
ATOM     31  OG  SER A   3       7.124  -5.130  22.405  0.00  0.00    -0.393 OA
ATOM     32  H   SER A   3       7.973  -5.129  21.926  0.00  0.00    +0.209 HD
ENDBRANCH  30  31
ENDBRANCH  18  30
ENDBRANCH  15  18
ENDBRANCH   1  14
BRANCH   1  33
ATOM     33  CB  GLN A   2       8.115  -0.206  20.004  0.00  0.00    +0.041 C 
BRANCH  33  34
ATOM     34  CG  GLN A   2       7.330   0.612  18.979  0.00  0.00    +0.098 C 
BRANCH  34  35
ATOM     35  CD  GLN A   2       6.080  -0.065  18.453  0.00  0.00    +0.211 C 
ATOM     36  OE1 GLN A   2       6.118  -1.134  17.852  0.00  0.00    -0.276 OA
ATOM     37  NE2 GLN A   2       4.906   0.609  18.577  0.00  0.00    -0.329 N 
ATOM     38 HE21 GLN A   2       4.774   1.398  19.192  0.00  0.00    +0.145 HD
ATOM     39 HE22 GLN A   2       4.076   0.127  18.251  0.00  0.00    +0.145 HD
ENDBRANCH  34  35
ENDBRANCH  33  34
ENDBRANCH   1  33
TORSDOF 17
ENDMDL
MODEL 15
REMARK VINA RESULT:      -6.0      2.673      4.361
REMARK  Name = LQSL-mmff94.pdb
REMARK  21 active torsions:
REMARK  status: ('A' for Active; 'I' for Inactive)
REMARK    1  A    between atoms: _1  and  _2
REMARK    2  A    between atoms: _2  and  _3
REMARK    3  A    between atoms: _2  and  _5
REMARK    4  A    between atoms: _5  and  _6
REMARK    5  A    between atoms: _6  and  _7
REMARK    6  A    between atoms: _6  and  _8
REMARK    7  A    between atoms: _20  and  _21
REMARK    8  A    between atoms: _21  and  _22
REMARK    9  A    between atoms: _21  and  _24
REMARK   10  A    between atoms: _24  and  _25
REMARK   11  A    between atoms: _25  and  _26
REMARK   12  A    between atoms: _37  and  _38
REMARK   13  A    between atoms: _38  and  _39
REMARK   14  A    between atoms: _38  and  _41
REMARK   15  A    between atoms: _41  and  _42
REMARK   16  A    between atoms: _48  and  _49
REMARK   17  A    between atoms: _49  and  _50
REMARK   18  A    between atoms: _49  and  _52
REMARK   19  A    between atoms: _52  and  _53
REMARK   20  A    between atoms: _53  and  _54
REMARK   21  A    between atoms: _53  and  _55
REMARK                            x       y       z     vdW  Elec       q    Type
REMARK                         _______ _______ _______ _____ _____    ______ ____
ROOT
ATOM      1  CA  GLN A   2       7.013  -0.771  21.453  0.00  0.00    +0.159 C 
ENDROOT
BRANCH   1   3
ATOM      2  C   LEU A   1       7.488   0.033  23.755  0.00  0.00    +0.230 C 
ATOM      3  N   GLN A   2       7.876  -0.642  22.624  0.00  0.00    -0.303 N 
ATOM      4  H   GLN A   2       8.809  -1.041  22.555  0.00  0.00    +0.149 HD
ATOM      5  O   LEU A   1       6.390   0.579  23.855  0.00  0.00    -0.274 OA
BRANCH   2   6
ATOM      6  CA  LEU A   1       8.544   0.059  24.885  0.00  0.00    +0.138 C 
BRANCH   6   7
ATOM      7  N   LEU A   1       9.002  -1.318  25.157  0.00  0.00    -0.320 NA
ATOM      8  H1  LEU A   1       9.221  -1.387  26.153  0.00  0.00    +0.119 HD
ATOM      9  H2  LEU A   1       8.193  -1.937  25.051  0.00  0.00    +0.119 HD
ENDBRANCH   6   7
BRANCH   6  10
ATOM     10  CB  LEU A   1       9.716   0.968  24.479  0.00  0.00    +0.031 C 
BRANCH  10  11
ATOM     11  CG  LEU A   1       9.372   2.076  23.463  0.00  0.00    -0.015 C 
ATOM     12  CD2 LEU A   1       9.577   3.449  24.108  0.00  0.00    +0.007 C 
ATOM     13  CD1 LEU A   1      10.210   1.975  22.187  0.00  0.00    +0.007 C 
ENDBRANCH  10  11
ENDBRANCH   6  10
ENDBRANCH   2   6
ENDBRANCH   1   3
BRANCH   1  14
ATOM     14  C   GLN A   2       6.482  -2.215  21.458  0.00  0.00    +0.234 C 
ATOM     15  N   SER A   3       7.118  -3.064  22.325  0.00  0.00    -0.301 N 
ATOM     16  H   SER A   3       7.882  -2.738  22.916  0.00  0.00    +0.150 HD
ATOM     17  O   GLN A   2       5.525  -2.566  20.769  0.00  0.00    -0.274 OA
BRANCH  15  18
ATOM     18  CA  SER A   3       6.581  -4.384  22.665  0.00  0.00    +0.184 C 
BRANCH  18  19
ATOM     19  C   SER A   3       7.073  -4.703  24.084  0.00  0.00    +0.236 C 
ATOM     20  O   SER A   3       8.239  -4.493  24.420  0.00  0.00    -0.274 OA
ATOM     21  N   LEU A   4       6.121  -5.180  24.948  0.00  0.00    -0.304 N 
ATOM     22  H   LEU A   4       5.199  -5.442  24.607  0.00  0.00    +0.149 HD
BRANCH  21  23
ATOM     23  CA  LEU A   4       6.418  -5.537  26.331  0.00  0.00    +0.136 C 
BRANCH  23  24
ATOM     24  C   LEU A   4       5.324  -6.503  26.776  0.00  0.00    +0.245 C 
ATOM     25  O   LEU A   4       5.414  -7.214  27.777  0.00  0.00    -0.299 OA
ENDBRANCH  23  24
BRANCH  23  26
ATOM     26  CB  LEU A   4       6.408  -4.321  27.269  0.00  0.00    +0.032 C 
BRANCH  26  27
ATOM     27  CG  LEU A   4       5.247  -3.329  27.059  0.00  0.00    -0.015 C 
ATOM     28  CD2 LEU A   4       5.740  -1.933  26.679  0.00  0.00    +0.007 C 
ATOM     29  CD1 LEU A   4       4.402  -3.240  28.333  0.00  0.00    +0.007 C 
ENDBRANCH  26  27
ENDBRANCH  23  26
ENDBRANCH  21  23
ENDBRANCH  18  19
BRANCH  18  30
ATOM     30  CB  SER A   3       6.998  -5.463  21.664  0.00  0.00    +0.187 C 
BRANCH  30  31
ATOM     31  OG  SER A   3       6.051  -5.596  20.604  0.00  0.00    -0.393 OA
ATOM     32  H   SER A   3       6.493  -5.281  19.795  0.00  0.00    +0.209 HD
ENDBRANCH  30  31
ENDBRANCH  18  30
ENDBRANCH  15  18
ENDBRANCH   1  14
BRANCH   1  33
ATOM     33  CB  GLN A   2       7.801  -0.475  20.167  0.00  0.00    +0.041 C 
BRANCH  33  34
ATOM     34  CG  GLN A   2       7.161   0.596  19.283  0.00  0.00    +0.098 C 
BRANCH  34  35
ATOM     35  CD  GLN A   2       5.907   0.150  18.558  0.00  0.00    +0.211 C 
ATOM     36  OE1 GLN A   2       5.940  -0.630  17.611  0.00  0.00    -0.276 OA
ATOM     37  NE2 GLN A   2       4.733   0.730  18.926  0.00  0.00    -0.329 N 
ATOM     38 HE21 GLN A   2       4.607   1.243  19.786  0.00  0.00    +0.145 HD
ATOM     39 HE22 GLN A   2       3.900   0.395  18.456  0.00  0.00    +0.145 HD
ENDBRANCH  34  35
ENDBRANCH  33  34
ENDBRANCH   1  33
TORSDOF 17
ENDMDL
MODEL 16
REMARK VINA RESULT:      -6.0      1.983      5.305
REMARK  Name = LQSL-mmff94.pdb
REMARK  21 active torsions:
REMARK  status: ('A' for Active; 'I' for Inactive)
REMARK    1  A    between atoms: _1  and  _2
REMARK    2  A    between atoms: _2  and  _3
REMARK    3  A    between atoms: _2  and  _5
REMARK    4  A    between atoms: _5  and  _6
REMARK    5  A    between atoms: _6  and  _7
REMARK    6  A    between atoms: _6  and  _8
REMARK    7  A    between atoms: _20  and  _21
REMARK    8  A    between atoms: _21  and  _22
REMARK    9  A    between atoms: _21  and  _24
REMARK   10  A    between atoms: _24  and  _25
REMARK   11  A    between atoms: _25  and  _26
REMARK   12  A    between atoms: _37  and  _38
REMARK   13  A    between atoms: _38  and  _39
REMARK   14  A    between atoms: _38  and  _41
REMARK   15  A    between atoms: _41  and  _42
REMARK   16  A    between atoms: _48  and  _49
REMARK   17  A    between atoms: _49  and  _50
REMARK   18  A    between atoms: _49  and  _52
REMARK   19  A    between atoms: _52  and  _53
REMARK   20  A    between atoms: _53  and  _54
REMARK   21  A    between atoms: _53  and  _55
REMARK                            x       y       z     vdW  Elec       q    Type
REMARK                         _______ _______ _______ _____ _____    ______ ____
ROOT
ATOM      1  CA  GLN A   2       8.193  -0.241  20.640  0.00  0.00    +0.159 C 
ENDROOT
BRANCH   1   3
ATOM      2  C   LEU A   1       7.740  -2.156  22.156  0.00  0.00    +0.230 C 
ATOM      3  N   GLN A   2       7.289  -1.161  21.325  0.00  0.00    -0.303 N 
ATOM      4  H   GLN A   2       6.296  -1.063  21.128  0.00  0.00    +0.149 HD
ATOM      5  O   LEU A   1       8.936  -2.343  22.373  0.00  0.00    -0.274 OA
BRANCH   2   6
ATOM      6  CA  LEU A   1       6.626  -3.026  22.785  0.00  0.00    +0.138 C 
BRANCH   6   7
ATOM      7  N   LEU A   1       5.543  -3.219  21.800  0.00  0.00    -0.320 NA
ATOM      8  H1  LEU A   1       5.958  -3.598  20.945  0.00  0.00    +0.119 HD
ATOM      9  H2  LEU A   1       4.956  -3.988  22.136  0.00  0.00    +0.119 HD
ENDBRANCH   6   7
BRANCH   6  10
ATOM     10  CB  LEU A   1       7.214  -4.372  23.240  0.00  0.00    +0.031 C 
BRANCH  10  11
ATOM     11  CG  LEU A   1       7.483  -4.499  24.753  0.00  0.00    -0.015 C 
ATOM     12  CD2 LEU A   1       6.394  -5.358  25.400  0.00  0.00    +0.007 C 
ATOM     13  CD1 LEU A   1       8.858  -5.098  25.050  0.00  0.00    +0.007 C 
ENDBRANCH  10  11
ENDBRANCH   6  10
ENDBRANCH   2   6
ENDBRANCH   1   3
BRANCH   1  14
ATOM     14  C   GLN A   2       8.073   1.111  21.366  0.00  0.00    +0.234 C 
ATOM     15  N   SER A   3       6.905   1.296  22.058  0.00  0.00    -0.301 N 
ATOM     16  H   SER A   3       6.185   0.575  22.078  0.00  0.00    +0.150 HD
ATOM     17  O   GLN A   2       8.980   1.941  21.363  0.00  0.00    -0.274 OA
BRANCH  15  18
ATOM     18  CA  SER A   3       6.729   2.386  23.020  0.00  0.00    +0.184 C 
BRANCH  18  19
ATOM     19  C   SER A   3       7.487   1.975  24.291  0.00  0.00    +0.236 C 
ATOM     20  O   SER A   3       7.394   2.626  25.331  0.00  0.00    -0.274 OA
ATOM     21  N   LEU A   4       8.218   0.819  24.195  0.00  0.00    -0.304 N 
ATOM     22  H   LEU A   4       8.359   0.369  23.294  0.00  0.00    +0.149 HD
BRANCH  21  23
ATOM     23  CA  LEU A   4       9.001   0.287  25.305  0.00  0.00    +0.136 C 
BRANCH  23  24
ATOM     24  C   LEU A   4      10.450   0.233  24.831  0.00  0.00    +0.245 C 
ATOM     25  O   LEU A   4      10.774   0.175  23.645  0.00  0.00    -0.299 OA
ENDBRANCH  23  24
BRANCH  23  26
ATOM     26  CB  LEU A   4       8.566  -1.130  25.708  0.00  0.00    +0.032 C 
BRANCH  26  27
ATOM     27  CG  LEU A   4       7.412  -1.206  26.727  0.00  0.00    -0.015 C 
ATOM     28  CD2 LEU A   4       6.046  -1.315  26.048  0.00  0.00    +0.007 C 
ATOM     29  CD1 LEU A   4       7.433   0.030  27.630  0.00  0.00    +0.007 C 
ENDBRANCH  26  27
ENDBRANCH  23  26
ENDBRANCH  21  23
ENDBRANCH  18  19
BRANCH  18  30
ATOM     30  CB  SER A   3       5.255   2.682  23.310  0.00  0.00    +0.187 C 
BRANCH  30  31
ATOM     31  OG  SER A   3       4.702   1.753  24.241  0.00  0.00    -0.393 OA
ATOM     32  H   SER A   3       4.660   0.892  23.784  0.00  0.00    +0.209 HD
ENDBRANCH  30  31
ENDBRANCH  18  30
ENDBRANCH  15  18
ENDBRANCH   1  14
BRANCH   1  33
ATOM     33  CB  GLN A   2       7.808  -0.110  19.157  0.00  0.00    +0.041 C 
BRANCH  33  34
ATOM     34  CG  GLN A   2       6.302  -0.176  18.903  0.00  0.00    +0.098 C 
BRANCH  34  35
ATOM     35  CD  GLN A   2       5.722   1.043  18.214  0.00  0.00    +0.211 C 
ATOM     36  OE1 GLN A   2       6.186   1.486  17.167  0.00  0.00    -0.276 OA
ATOM     37  NE2 GLN A   2       4.722   1.706  18.853  0.00  0.00    -0.329 N 
ATOM     38 HE21 GLN A   2       4.190   1.316  19.617  0.00  0.00    +0.145 HD
ATOM     39 HE22 GLN A   2       4.324   2.498  18.363  0.00  0.00    +0.145 HD
ENDBRANCH  34  35
ENDBRANCH  33  34
ENDBRANCH   1  33
TORSDOF 17
ENDMDL
MODEL 17
REMARK VINA RESULT:      -6.0      2.780      4.761
REMARK  Name = LQSL-mmff94.pdb
REMARK  21 active torsions:
REMARK  status: ('A' for Active; 'I' for Inactive)
REMARK    1  A    between atoms: _1  and  _2
REMARK    2  A    between atoms: _2  and  _3
REMARK    3  A    between atoms: _2  and  _5
REMARK    4  A    between atoms: _5  and  _6
REMARK    5  A    between atoms: _6  and  _7
REMARK    6  A    between atoms: _6  and  _8
REMARK    7  A    between atoms: _20  and  _21
REMARK    8  A    between atoms: _21  and  _22
REMARK    9  A    between atoms: _21  and  _24
REMARK   10  A    between atoms: _24  and  _25
REMARK   11  A    between atoms: _25  and  _26
REMARK   12  A    between atoms: _37  and  _38
REMARK   13  A    between atoms: _38  and  _39
REMARK   14  A    between atoms: _38  and  _41
REMARK   15  A    between atoms: _41  and  _42
REMARK   16  A    between atoms: _48  and  _49
REMARK   17  A    between atoms: _49  and  _50
REMARK   18  A    between atoms: _49  and  _52
REMARK   19  A    between atoms: _52  and  _53
REMARK   20  A    between atoms: _53  and  _54
REMARK   21  A    between atoms: _53  and  _55
REMARK                            x       y       z     vdW  Elec       q    Type
REMARK                         _______ _______ _______ _____ _____    ______ ____
ROOT
ATOM      1  CA  GLN A   2       7.102  -0.927  21.710  0.00  0.00    +0.159 C 
ENDROOT
BRANCH   1   3
ATOM      2  C   LEU A   1       8.377  -0.083  23.668  0.00  0.00    +0.230 C 
ATOM      3  N   GLN A   2       8.146  -1.053  22.724  0.00  0.00    -0.303 N 
ATOM      4  H   GLN A   2       8.735  -1.880  22.678  0.00  0.00    +0.149 HD
ATOM      5  O   LEU A   1       7.725   0.958  23.719  0.00  0.00    -0.274 OA
BRANCH   2   6
ATOM      6  CA  LEU A   1       9.528  -0.403  24.652  0.00  0.00    +0.138 C 
BRANCH   6   7
ATOM      7  N   LEU A   1      10.569   0.637  24.539  0.00  0.00    -0.320 NA
ATOM      8  H1  LEU A   1      10.105   1.530  24.359  0.00  0.00    +0.119 HD
ATOM      9  H2  LEU A   1      10.975   0.768  25.471  0.00  0.00    +0.119 HD
ENDBRANCH   6   7
BRANCH   6  10
ATOM     10  CB  LEU A   1       8.977  -0.489  26.084  0.00  0.00    +0.031 C 
BRANCH  10  11
ATOM     11  CG  LEU A   1       8.403  -1.862  26.491  0.00  0.00    -0.015 C 
ATOM     12  CD2 LEU A   1       6.873  -1.810  26.461  0.00  0.00    +0.007 C 
ATOM     13  CD1 LEU A   1       8.898  -2.990  25.586  0.00  0.00    +0.007 C 
ENDBRANCH  10  11
ENDBRANCH   6  10
ENDBRANCH   2   6
ENDBRANCH   1   3
BRANCH   1  14
ATOM     14  C   GLN A   2       6.467  -2.320  21.561  0.00  0.00    +0.234 C 
ATOM     15  N   SER A   3       6.911  -3.258  22.456  0.00  0.00    -0.301 N 
ATOM     16  H   SER A   3       7.608  -3.025  23.162  0.00  0.00    +0.150 HD
ATOM     17  O   GLN A   2       5.591  -2.559  20.732  0.00  0.00    -0.274 OA
BRANCH  15  18
ATOM     18  CA  SER A   3       6.233  -4.544  22.645  0.00  0.00    +0.184 C 
BRANCH  18  19
ATOM     19  C   SER A   3       5.617  -4.510  24.051  0.00  0.00    +0.236 C 
ATOM     20  O   SER A   3       4.620  -3.831  24.296  0.00  0.00    -0.274 OA
ATOM     21  N   LEU A   4       6.217  -5.321  24.980  0.00  0.00    -0.304 N 
ATOM     22  H   LEU A   4       7.099  -5.782  24.771  0.00  0.00    +0.149 HD
BRANCH  21  23
ATOM     23  CA  LEU A   4       5.761  -5.407  26.363  0.00  0.00    +0.136 C 
BRANCH  23  24
ATOM     24  C   LEU A   4       7.014  -5.482  27.231  0.00  0.00    +0.245 C 
ATOM     25  O   LEU A   4       7.060  -6.079  28.306  0.00  0.00    -0.299 OA
ENDBRANCH  23  24
BRANCH  23  26
ATOM     26  CB  LEU A   4       4.909  -6.658  26.626  0.00  0.00    +0.032 C 
BRANCH  26  27
ATOM     27  CG  LEU A   4       3.409  -6.400  26.871  0.00  0.00    -0.015 C 
ATOM     28  CD2 LEU A   4       2.572  -6.608  25.608  0.00  0.00    +0.007 C 
ATOM     29  CD1 LEU A   4       3.204  -4.973  27.387  0.00  0.00    +0.007 C 
ENDBRANCH  26  27
ENDBRANCH  23  26
ENDBRANCH  21  23
ENDBRANCH  18  19
BRANCH  18  30
ATOM     30  CB  SER A   3       7.176  -5.736  22.467  0.00  0.00    +0.187 C 
BRANCH  30  31
ATOM     31  OG  SER A   3       8.379  -5.576  23.218  0.00  0.00    -0.393 OA
ATOM     32  H   SER A   3       9.115  -5.777  22.612  0.00  0.00    +0.209 HD
ENDBRANCH  30  31
ENDBRANCH  18  30
ENDBRANCH  15  18
ENDBRANCH   1  14
BRANCH   1  33
ATOM     33  CB  GLN A   2       7.699  -0.445  20.378  0.00  0.00    +0.041 C 
BRANCH  33  34
ATOM     34  CG  GLN A   2       6.907   0.686  19.721  0.00  0.00    +0.098 C 
BRANCH  34  35
ATOM     35  CD  GLN A   2       6.350   0.355  18.351  0.00  0.00    +0.211 C 
ATOM     36  OE1 GLN A   2       6.366   1.160  17.425  0.00  0.00    -0.276 OA
ATOM     37  NE2 GLN A   2       5.726  -0.844  18.203  0.00  0.00    -0.329 N 
ATOM     38 HE21 GLN A   2       5.818  -1.607  18.857  0.00  0.00    +0.145 HD
ATOM     39 HE22 GLN A   2       5.390  -1.064  17.273  0.00  0.00    +0.145 HD
ENDBRANCH  34  35
ENDBRANCH  33  34
ENDBRANCH   1  33
TORSDOF 17
ENDMDL
MODEL 18
REMARK VINA RESULT:      -6.0      2.634      4.587
REMARK  Name = LQSL-mmff94.pdb
REMARK  21 active torsions:
REMARK  status: ('A' for Active; 'I' for Inactive)
REMARK    1  A    between atoms: _1  and  _2
REMARK    2  A    between atoms: _2  and  _3
REMARK    3  A    between atoms: _2  and  _5
REMARK    4  A    between atoms: _5  and  _6
REMARK    5  A    between atoms: _6  and  _7
REMARK    6  A    between atoms: _6  and  _8
REMARK    7  A    between atoms: _20  and  _21
REMARK    8  A    between atoms: _21  and  _22
REMARK    9  A    between atoms: _21  and  _24
REMARK   10  A    between atoms: _24  and  _25
REMARK   11  A    between atoms: _25  and  _26
REMARK   12  A    between atoms: _37  and  _38
REMARK   13  A    between atoms: _38  and  _39
REMARK   14  A    between atoms: _38  and  _41
REMARK   15  A    between atoms: _41  and  _42
REMARK   16  A    between atoms: _48  and  _49
REMARK   17  A    between atoms: _49  and  _50
REMARK   18  A    between atoms: _49  and  _52
REMARK   19  A    between atoms: _52  and  _53
REMARK   20  A    between atoms: _53  and  _54
REMARK   21  A    between atoms: _53  and  _55
REMARK                            x       y       z     vdW  Elec       q    Type
REMARK                         _______ _______ _______ _____ _____    ______ ____
ROOT
ATOM      1  CA  GLN A   2       6.619  -0.655  21.041  0.00  0.00    +0.159 C 
ENDROOT
BRANCH   1   3
ATOM      2  C   LEU A   1       7.174   0.727  23.029  0.00  0.00    +0.230 C 
ATOM      3  N   GLN A   2       7.213  -0.472  22.362  0.00  0.00    -0.303 N 
ATOM      4  H   GLN A   2       7.704  -1.269  22.760  0.00  0.00    +0.149 HD
ATOM      5  O   LEU A   1       6.641   1.730  22.554  0.00  0.00    -0.274 OA
BRANCH   2   6
ATOM      6  CA  LEU A   1       7.862   0.718  24.414  0.00  0.00    +0.138 C 
BRANCH   6   7
ATOM      7  N   LEU A   1       6.954   1.316  25.413  0.00  0.00    -0.320 NA
ATOM      8  H1  LEU A   1       7.519   1.619  26.211  0.00  0.00    +0.119 HD
ATOM      9  H2  LEU A   1       6.607   2.198  25.024  0.00  0.00    +0.119 HD
ENDBRANCH   6   7
BRANCH   6  10
ATOM     10  CB  LEU A   1       8.241  -0.722  24.795  0.00  0.00    +0.031 C 
BRANCH  10  11
ATOM     11  CG  LEU A   1       9.752  -1.033  24.787  0.00  0.00    -0.015 C 
ATOM     12  CD2 LEU A   1      10.047  -2.128  23.759  0.00  0.00    +0.007 C 
ATOM     13  CD1 LEU A   1      10.598   0.204  24.481  0.00  0.00    +0.007 C 
ENDBRANCH  10  11
ENDBRANCH   6  10
ENDBRANCH   2   6
ENDBRANCH   1   3
BRANCH   1  14
ATOM     14  C   GLN A   2       6.117  -2.109  20.985  0.00  0.00    +0.234 C 
ATOM     15  N   SER A   3       6.353  -2.848  22.114  0.00  0.00    -0.301 N 
ATOM     16  H   SER A   3       6.826  -2.441  22.921  0.00  0.00    +0.150 HD
ATOM     17  O   GLN A   2       5.506  -2.557  20.015  0.00  0.00    -0.274 OA
BRANCH  15  18
ATOM     18  CA  SER A   3       5.716  -4.146  22.349  0.00  0.00    +0.184 C 
BRANCH  18  19
ATOM     19  C   SER A   3       5.243  -4.142  23.809  0.00  0.00    +0.236 C 
ATOM     20  O   SER A   3       4.505  -5.026  24.245  0.00  0.00    -0.274 OA
ATOM     21  N   LEU A   4       5.738  -3.129  24.590  0.00  0.00    -0.304 N 
ATOM     22  H   LEU A   4       6.255  -2.359  24.171  0.00  0.00    +0.149 HD
BRANCH  21  23
ATOM     23  CA  LEU A   4       5.387  -2.974  25.997  0.00  0.00    +0.136 C 
BRANCH  23  24
ATOM     24  C   LEU A   4       4.965  -1.520  26.184  0.00  0.00    +0.245 C 
ATOM     25  O   LEU A   4       4.722  -0.759  25.248  0.00  0.00    -0.299 OA
ENDBRANCH  23  24
BRANCH  23  26
ATOM     26  CB  LEU A   4       6.569  -3.264  26.934  0.00  0.00    +0.032 C 
BRANCH  26  27
ATOM     27  CG  LEU A   4       7.318  -4.586  26.670  0.00  0.00    -0.015 C 
ATOM     28  CD2 LEU A   4       6.979  -5.659  27.706  0.00  0.00    +0.007 C 
ATOM     29  CD1 LEU A   4       8.829  -4.338  26.672  0.00  0.00    +0.007 C 
ENDBRANCH  26  27
ENDBRANCH  23  26
ENDBRANCH  21  23
ENDBRANCH  18  19
BRANCH  18  30
ATOM     30  CB  SER A   3       6.653  -5.321  22.059  0.00  0.00    +0.187 C 
BRANCH  30  31
ATOM     31  OG  SER A   3       5.959  -6.568  22.084  0.00  0.00    -0.393 OA
ATOM     32  H   SER A   3       6.544  -7.203  22.538  0.00  0.00    +0.209 HD
ENDBRANCH  30  31
ENDBRANCH  18  30
ENDBRANCH  15  18
ENDBRANCH   1  14
BRANCH   1  33
ATOM     33  CB  GLN A   2       7.657  -0.384  19.940  0.00  0.00    +0.041 C 
BRANCH  33  34
ATOM     34  CG  GLN A   2       7.227   0.687  18.937  0.00  0.00    +0.098 C 
BRANCH  34  35
ATOM     35  CD  GLN A   2       5.906   0.413  18.246  0.00  0.00    +0.211 C 
ATOM     36  OE1 GLN A   2       5.772  -0.486  17.422  0.00  0.00    -0.276 OA
ATOM     37  NE2 GLN A   2       4.882   1.273  18.492  0.00  0.00    -0.329 N 
ATOM     38 HE21 GLN A   2       4.869   1.921  19.266  0.00  0.00    +0.145 HD
ATOM     39 HE22 GLN A   2       3.997   1.056  18.050  0.00  0.00    +0.145 HD
ENDBRANCH  34  35
ENDBRANCH  33  34
ENDBRANCH   1  33
TORSDOF 17
ENDMDL
MODEL 19
REMARK VINA RESULT:      -5.9      2.587      5.254
REMARK  Name = LQSL-mmff94.pdb
REMARK  21 active torsions:
REMARK  status: ('A' for Active; 'I' for Inactive)
REMARK    1  A    between atoms: _1  and  _2
REMARK    2  A    between atoms: _2  and  _3
REMARK    3  A    between atoms: _2  and  _5
REMARK    4  A    between atoms: _5  and  _6
REMARK    5  A    between atoms: _6  and  _7
REMARK    6  A    between atoms: _6  and  _8
REMARK    7  A    between atoms: _20  and  _21
REMARK    8  A    between atoms: _21  and  _22
REMARK    9  A    between atoms: _21  and  _24
REMARK   10  A    between atoms: _24  and  _25
REMARK   11  A    between atoms: _25  and  _26
REMARK   12  A    between atoms: _37  and  _38
REMARK   13  A    between atoms: _38  and  _39
REMARK   14  A    between atoms: _38  and  _41
REMARK   15  A    between atoms: _41  and  _42
REMARK   16  A    between atoms: _48  and  _49
REMARK   17  A    between atoms: _49  and  _50
REMARK   18  A    between atoms: _49  and  _52
REMARK   19  A    between atoms: _52  and  _53
REMARK   20  A    between atoms: _53  and  _54
REMARK   21  A    between atoms: _53  and  _55
REMARK                            x       y       z     vdW  Elec       q    Type
REMARK                         _______ _______ _______ _____ _____    ______ ____
ROOT
ATOM      1  CA  GLN A   2       7.522  -0.220  21.611  0.00  0.00    +0.159 C 
ENDROOT
BRANCH   1   3
ATOM      2  C   LEU A   1       6.777  -2.563  21.971  0.00  0.00    +0.230 C 
ATOM      3  N   GLN A   2       6.506  -1.269  21.600  0.00  0.00    -0.303 N 
ATOM      4  H   GLN A   2       5.583  -1.013  21.259  0.00  0.00    +0.149 HD
ATOM      5  O   LEU A   1       7.896  -2.926  22.333  0.00  0.00    -0.274 OA
BRANCH   2   6
ATOM      6  CA  LEU A   1       5.568  -3.525  21.888  0.00  0.00    +0.138 C 
BRANCH   6   7
ATOM      7  N   LEU A   1       5.892  -4.636  20.971  0.00  0.00    -0.320 NA
ATOM      8  H1  LEU A   1       5.129  -4.720  20.296  0.00  0.00    +0.119 HD
ATOM      9  H2  LEU A   1       6.684  -4.338  20.394  0.00  0.00    +0.119 HD
ENDBRANCH   6   7
BRANCH   6  10
ATOM     10  CB  LEU A   1       5.220  -4.043  23.293  0.00  0.00    +0.031 C 
BRANCH  10  11
ATOM     11  CG  LEU A   1       4.217  -5.214  23.337  0.00  0.00    -0.015 C 
ATOM     12  CD2 LEU A   1       4.848  -6.405  24.064  0.00  0.00    +0.007 C 
ATOM     13  CD1 LEU A   1       2.904  -4.829  24.019  0.00  0.00    +0.007 C 
ENDBRANCH  10  11
ENDBRANCH   6  10
ENDBRANCH   2   6
ENDBRANCH   1   3
BRANCH   1  14
ATOM     14  C   GLN A   2       7.475   0.417  23.011  0.00  0.00    +0.234 C 
ATOM     15  N   SER A   3       7.331  -0.467  24.047  0.00  0.00    -0.301 N 
ATOM     16  H   SER A   3       7.266  -1.470  23.878  0.00  0.00    +0.150 HD
ATOM     17  O   GLN A   2       7.606   1.628  23.187  0.00  0.00    -0.274 OA
BRANCH  15  18
ATOM     18  CA  SER A   3       7.539  -0.078  25.444  0.00  0.00    +0.184 C 
BRANCH  18  19
ATOM     19  C   SER A   3       8.184  -1.284  26.142  0.00  0.00    +0.236 C 
ATOM     20  O   SER A   3       8.888  -1.144  27.143  0.00  0.00    -0.274 OA
ATOM     21  N   LEU A   4       7.879  -2.510  25.609  0.00  0.00    -0.304 N 
ATOM     22  H   LEU A   4       7.385  -2.580  24.721  0.00  0.00    +0.149 HD
BRANCH  21  23
ATOM     23  CA  LEU A   4       8.409  -3.758  26.145  0.00  0.00    +0.136 C 
BRANCH  23  24
ATOM     24  C   LEU A   4       9.428  -4.271  25.132  0.00  0.00    +0.245 C 
ATOM     25  O   LEU A   4       9.229  -5.241  24.401  0.00  0.00    -0.299 OA
ENDBRANCH  23  24
BRANCH  23  26
ATOM     26  CB  LEU A   4       7.323  -4.829  26.331  0.00  0.00    +0.032 C 
BRANCH  26  27
ATOM     27  CG  LEU A   4       6.383  -4.620  27.534  0.00  0.00    -0.015 C 
ATOM     28  CD2 LEU A   4       6.187  -5.901  28.345  0.00  0.00    +0.007 C 
ATOM     29  CD1 LEU A   4       5.021  -4.114  27.048  0.00  0.00    +0.007 C 
ENDBRANCH  26  27
ENDBRANCH  23  26
ENDBRANCH  21  23
ENDBRANCH  18  19
BRANCH  18  30
ATOM     30  CB  SER A   3       6.241   0.349  26.135  0.00  0.00    +0.187 C 
BRANCH  30  31
ATOM     31  OG  SER A   3       5.883  -0.545  27.187  0.00  0.00    -0.393 OA
ATOM     32  H   SER A   3       5.735  -1.416  26.775  0.00  0.00    +0.209 HD
ENDBRANCH  30  31
ENDBRANCH  18  30
ENDBRANCH  15  18
ENDBRANCH   1  14
BRANCH   1  33
ATOM     33  CB  GLN A   2       7.235   0.821  20.518  0.00  0.00    +0.041 C 
BRANCH  33  34
ATOM     34  CG  GLN A   2       7.392   0.281  19.096  0.00  0.00    +0.098 C 
BRANCH  34  35
ATOM     35  CD  GLN A   2       6.098   0.171  18.315  0.00  0.00    +0.211 C 
ATOM     36  OE1 GLN A   2       5.877  -0.755  17.541  0.00  0.00    -0.276 OA
ATOM     37  NE2 GLN A   2       5.216   1.201  18.419  0.00  0.00    -0.329 N 
ATOM     38 HE21 GLN A   2       5.254   1.900  19.145  0.00  0.00    +0.145 HD
ATOM     39 HE22 GLN A   2       4.342   1.095  17.918  0.00  0.00    +0.145 HD
ENDBRANCH  34  35
ENDBRANCH  33  34
ENDBRANCH   1  33
TORSDOF 17
ENDMDL
MODEL 20
REMARK VINA RESULT:      -5.9      2.705      5.146
REMARK  Name = LQSL-mmff94.pdb
REMARK  21 active torsions:
REMARK  status: ('A' for Active; 'I' for Inactive)
REMARK    1  A    between atoms: _1  and  _2
REMARK    2  A    between atoms: _2  and  _3
REMARK    3  A    between atoms: _2  and  _5
REMARK    4  A    between atoms: _5  and  _6
REMARK    5  A    between atoms: _6  and  _7
REMARK    6  A    between atoms: _6  and  _8
REMARK    7  A    between atoms: _20  and  _21
REMARK    8  A    between atoms: _21  and  _22
REMARK    9  A    between atoms: _21  and  _24
REMARK   10  A    between atoms: _24  and  _25
REMARK   11  A    between atoms: _25  and  _26
REMARK   12  A    between atoms: _37  and  _38
REMARK   13  A    between atoms: _38  and  _39
REMARK   14  A    between atoms: _38  and  _41
REMARK   15  A    between atoms: _41  and  _42
REMARK   16  A    between atoms: _48  and  _49
REMARK   17  A    between atoms: _49  and  _50
REMARK   18  A    between atoms: _49  and  _52
REMARK   19  A    between atoms: _52  and  _53
REMARK   20  A    between atoms: _53  and  _54
REMARK   21  A    between atoms: _53  and  _55
REMARK                            x       y       z     vdW  Elec       q    Type
REMARK                         _______ _______ _______ _____ _____    ______ ____
ROOT
ATOM      1  CA  GLN A   2       9.228  -0.747  24.622  0.00  0.00    +0.159 C 
ENDROOT
BRANCH   1   3
ATOM      2  C   LEU A   1       8.467  -1.193  22.300  0.00  0.00    +0.230 C 
ATOM      3  N   GLN A   2       8.249  -0.653  23.543  0.00  0.00    -0.303 N 
ATOM      4  H   GLN A   2       7.400  -0.127  23.736  0.00  0.00    +0.149 HD
ATOM      5  O   LEU A   1       9.506  -1.786  22.010  0.00  0.00    -0.274 OA
BRANCH   2   6
ATOM      6  CA  LEU A   1       7.310  -0.986  21.294  0.00  0.00    +0.138 C 
BRANCH   6   7
ATOM      7  N   LEU A   1       6.149  -1.797  21.712  0.00  0.00    -0.320 NA
ATOM      8  H1  LEU A   1       6.345  -2.171  22.643  0.00  0.00    +0.119 HD
ATOM      9  H2  LEU A   1       5.369  -1.153  21.877  0.00  0.00    +0.119 HD
ENDBRANCH   6   7
BRANCH   6  10
ATOM     10  CB  LEU A   1       6.951   0.507  21.217  0.00  0.00    +0.031 C 
BRANCH  10  11
ATOM     11  CG  LEU A   1       6.822   1.085  19.793  0.00  0.00    -0.015 C 
ATOM     12  CD2 LEU A   1       7.504   0.147  18.793  0.00  0.00    +0.007 C 
ATOM     13  CD1 LEU A   1       5.365   1.304  19.385  0.00  0.00    +0.007 C 
ENDBRANCH  10  11
ENDBRANCH   6  10
ENDBRANCH   2   6
ENDBRANCH   1   3
BRANCH   1  14
ATOM     14  C   GLN A   2       8.427  -0.867  25.930  0.00  0.00    +0.234 C 
ATOM     15  N   SER A   3       7.100  -0.543  25.830  0.00  0.00    -0.301 N 
ATOM     16  H   SER A   3       6.695  -0.249  24.941  0.00  0.00    +0.150 HD
ATOM     17  O   GLN A   2       8.932  -1.272  26.976  0.00  0.00    -0.274 OA
BRANCH  15  18
ATOM     18  CA  SER A   3       6.134  -0.856  26.886  0.00  0.00    +0.184 C 
BRANCH  18  19
ATOM     19  C   SER A   3       5.567  -2.245  26.562  0.00  0.00    +0.236 C 
ATOM     20  O   SER A   3       4.528  -2.378  25.914  0.00  0.00    -0.274 OA
ATOM     21  N   LEU A   4       6.319  -3.307  26.994  0.00  0.00    -0.304 N 
ATOM     22  H   LEU A   4       7.110  -3.161  27.618  0.00  0.00    +0.149 HD
BRANCH  21  23
ATOM     23  CA  LEU A   4       5.924  -4.694  26.775  0.00  0.00    +0.136 C 
BRANCH  23  24
ATOM     24  C   LEU A   4       6.153  -5.427  28.093  0.00  0.00    +0.245 C 
ATOM     25  O   LEU A   4       7.129  -6.143  28.311  0.00  0.00    -0.299 OA
ENDBRANCH  23  24
BRANCH  23  26
ATOM     26  CB  LEU A   4       6.761  -5.379  25.684  0.00  0.00    +0.032 C 
BRANCH  26  27
ATOM     27  CG  LEU A   4       7.867  -4.512  25.052  0.00  0.00    -0.015 C 
ATOM     28  CD2 LEU A   4       7.846  -4.569  23.524  0.00  0.00    +0.007 C 
ATOM     29  CD1 LEU A   4       9.239  -4.967  25.559  0.00  0.00    +0.007 C 
ENDBRANCH  26  27
ENDBRANCH  23  26
ENDBRANCH  21  23
ENDBRANCH  18  19
BRANCH  18  30
ATOM     30  CB  SER A   3       5.028   0.196  27.001  0.00  0.00    +0.187 C 
BRANCH  30  31
ATOM     31  OG  SER A   3       4.490   0.539  25.724  0.00  0.00    -0.393 OA
ATOM     32  H   SER A   3       4.597   1.503  25.627  0.00  0.00    +0.209 HD
ENDBRANCH  30  31
ENDBRANCH  18  30
ENDBRANCH  15  18
ENDBRANCH   1  14
BRANCH   1  33
ATOM     33  CB  GLN A   2      10.133   0.496  24.639  0.00  0.00    +0.041 C 
BRANCH  33  34
ATOM     34  CG  GLN A   2       9.471   1.749  24.064  0.00  0.00    +0.098 C 
BRANCH  34  35
ATOM     35  CD  GLN A   2      10.285   2.463  23.004  0.00  0.00    +0.211 C 
ATOM     36  OE1 GLN A   2      11.056   3.378  23.276  0.00  0.00    -0.276 OA
ATOM     37  NE2 GLN A   2      10.055   2.127  21.707  0.00  0.00    -0.329 N 
ATOM     38 HE21 GLN A   2       9.569   1.289  21.423  0.00  0.00    +0.145 HD
ATOM     39 HE22 GLN A   2      10.632   2.589  21.014  0.00  0.00    +0.145 HD
ENDBRANCH  34  35
ENDBRANCH  33  34
ENDBRANCH   1  33
TORSDOF 17
ENDMDL
