REMARK  Name = LQSL-mmff94.pdb
REMARK  21 active torsions:
REMARK  status: ('A' for Active; 'I' for Inactive)
REMARK    1  A    between atoms: _1  and  _2
REMARK    2  A    between atoms: _2  and  _3
REMARK    3  A    between atoms: _2  and  _5
REMARK    4  A    between atoms: _5  and  _6
REMARK    5  A    between atoms: _6  and  _7
REMARK    6  A    between atoms: _6  and  _8
REMARK    7  A    between atoms: _20  and  _21
REMARK    8  A    between atoms: _21  and  _22
REMARK    9  A    between atoms: _21  and  _24
REMARK   10  A    between atoms: _24  and  _25
REMARK   11  A    between atoms: _25  and  _26
REMARK   12  A    between atoms: _37  and  _38
REMARK   13  A    between atoms: _38  and  _39
REMARK   14  A    between atoms: _38  and  _41
REMARK   15  A    between atoms: _41  and  _42
REMARK   16  A    between atoms: _48  and  _49
REMARK   17  A    between atoms: _49  and  _50
REMARK   18  A    between atoms: _49  and  _52
REMARK   19  A    between atoms: _52  and  _53
REMARK   20  A    between atoms: _53  and  _54
REMARK   21  A    between atoms: _53  and  _55
REMARK                            x       y       z     vdW  Elec       q    Type
REMARK                         _______ _______ _______ _____ _____    ______ ____
ROOT
ATOM      1  CA  GLN A   2       4.815   0.141  -1.105  0.00  0.00    +0.159 C 
ENDROOT
BRANCH   1   3
ATOM      2  C   LEU A   1       2.644  -1.009  -0.735  0.00  0.00    +0.230 C 
ATOM      3  N   GLN A   2       3.355   0.108  -1.099  0.00  0.00    -0.303 N 
ATOM      4  H   GLN A   2       2.874   0.944  -1.421  0.00  0.00    +0.149 HD
ATOM      5  O   LEU A   1       3.190  -2.058  -0.396  0.00  0.00    -0.274 OA
BRANCH   2   6
ATOM      6  CA  LEU A   1       1.107  -0.844  -0.797  0.00  0.00    +0.138 C 
BRANCH   6   7
ATOM      7  N   LEU A   1       0.471  -2.175  -0.747  0.00  0.00    -0.320 NA
ATOM      8  H1  LEU A   1       0.886  -2.751  -1.483  0.00  0.00    +0.119 HD
ATOM      9  H2  LEU A   1       0.785  -2.633   0.114  0.00  0.00    +0.119 HD
ENDBRANCH   6   7
BRANCH   6  10
ATOM     10  CB  LEU A   1       0.634   0.046   0.364  0.00  0.00    +0.031 C 
BRANCH  10  11
ATOM     11  CG  LEU A   1      -0.890   0.266   0.451  0.00  0.00    -0.015 C 
ATOM     12  CD2 LEU A   1      -1.220   1.104   1.689  0.00  0.00    +0.007 C 
ATOM     13  CD1 LEU A   1      -1.451   0.947  -0.798  0.00  0.00    +0.007 C 
ENDBRANCH  10  11
ENDBRANCH   6  10
ENDBRANCH   2   6
ENDBRANCH   1   3
BRANCH   1  14
ATOM     14  C   GLN A   2       5.218   1.626  -1.097  0.00  0.00    +0.234 C 
ATOM     15  N   SER A   3       6.431   1.895  -0.520  0.00  0.00    -0.301 N 
ATOM     16  H   SER A   3       7.008   1.148  -0.134  0.00  0.00    +0.150 HD
ATOM     17  O   GLN A   2       4.523   2.499  -1.615  0.00  0.00    -0.274 OA
BRANCH  15  18
ATOM     18  CA  SER A   3       7.097   3.192  -0.663  0.00  0.00    +0.184 C 
BRANCH  18  19
ATOM     19  C   SER A   3       8.599   2.935  -0.474  0.00  0.00    +0.236 C 
ATOM     20  O   SER A   3       9.011   1.892   0.035  0.00  0.00    -0.274 OA
ATOM     21  N   LEU A   4       9.432   3.912  -0.955  0.00  0.00    -0.304 N 
ATOM     22  H   LEU A   4       9.056   4.804  -1.269  0.00  0.00    +0.149 HD
BRANCH  21  23
ATOM     23  CA  LEU A   4      10.885   3.830  -0.854  0.00  0.00    +0.136 C 
BRANCH  23  24
ATOM     24  C   LEU A   4      11.392   5.259  -0.686  0.00  0.00    +0.245 C 
ATOM     25  O   LEU A   4      10.709   6.254  -0.928  0.00  0.00    -0.299 OA
ENDBRANCH  23  24
BRANCH  23  26
ATOM     26  CB  LEU A   4      11.530   3.227  -2.111  0.00  0.00    +0.032 C 
BRANCH  26  27
ATOM     27  CG  LEU A   4      11.302   1.716  -2.315  0.00  0.00    -0.015 C 
ATOM     28  CD2 LEU A   4      11.980   0.877  -1.231  0.00  0.00    +0.007 C 
ATOM     29  CD1 LEU A   4      11.828   1.291  -3.689  0.00  0.00    +0.007 C 
ENDBRANCH  26  27
ENDBRANCH  23  26
ENDBRANCH  21  23
ENDBRANCH  18  19
BRANCH  18  30
ATOM     30  CB  SER A   3       6.571   4.235   0.326  0.00  0.00    +0.187 C 
BRANCH  30  31
ATOM     31  OG  SER A   3       6.602   3.753   1.669  0.00  0.00    -0.393 OA
ATOM     32  H   SER A   3       6.111   2.911   1.674  0.00  0.00    +0.209 HD
ENDBRANCH  30  31
ENDBRANCH  18  30
ENDBRANCH  15  18
ENDBRANCH   1  14
BRANCH   1  33
ATOM     33  CB  GLN A   2       5.366  -0.576  -2.348  0.00  0.00    +0.041 C 
BRANCH  33  34
ATOM     34  CG  GLN A   2       6.893  -0.630  -2.403  0.00  0.00    +0.098 C 
BRANCH  34  35
ATOM     35  CD  GLN A   2       7.455  -1.631  -3.392  0.00  0.00    +0.211 C 
ATOM     36  OE1 GLN A   2       8.504  -2.235  -3.188  0.00  0.00    -0.276 OA
ATOM     37  NE2 GLN A   2       6.808  -1.767  -4.580  0.00  0.00    -0.329 N 
ATOM     38 HE21 GLN A   2       5.870  -1.435  -4.748  0.00  0.00    +0.145 HD
ATOM     39 HE22 GLN A   2       7.177  -2.465  -5.215  0.00  0.00    +0.145 HD
ENDBRANCH  34  35
ENDBRANCH  33  34
ENDBRANCH   1  33
TORSDOF 17
