MODEL 1
REMARK VINA RESULT:      -6.5      0.000      0.000
REMARK  Name = LQSS-mmff94.pdb
REMARK  19 active torsions:
REMARK  status: ('A' for Active; 'I' for Inactive)
REMARK    1  A    between atoms: _1  and  _2
REMARK    2  A    between atoms: _2  and  _3
REMARK    3  A    between atoms: _2  and  _5
REMARK    4  A    between atoms: _5  and  _6
REMARK    5  A    between atoms: _6  and  _7
REMARK    6  A    between atoms: _6  and  _8
REMARK    7  A    between atoms: _20  and  _21
REMARK    8  A    between atoms: _21  and  _22
REMARK    9  A    between atoms: _21  and  _24
REMARK   10  A    between atoms: _24  and  _25
REMARK   11  A    between atoms: _25  and  _26
REMARK   12  A    between atoms: _37  and  _38
REMARK   13  A    between atoms: _38  and  _39
REMARK   14  A    between atoms: _38  and  _41
REMARK   15  A    between atoms: _41  and  _42
REMARK   16  A    between atoms: _48  and  _49
REMARK   17  A    between atoms: _49  and  _50
REMARK   18  A    between atoms: _49  and  _52
REMARK   19  A    between atoms: _52  and  _53
REMARK                            x       y       z     vdW  Elec       q    Type
REMARK                         _______ _______ _______ _____ _____    ______ ____
ROOT
ATOM      1  CA  GLN A   2       6.218  -1.547  21.074  0.00  0.00    +0.159 C 
ENDROOT
BRANCH   1   3
ATOM      2  C   LEU A   1       7.993   0.114  21.597  0.00  0.00    +0.230 C 
ATOM      3  N   GLN A   2       7.615  -1.117  21.119  0.00  0.00    -0.303 N 
ATOM      4  H   GLN A   2       8.307  -1.759  20.741  0.00  0.00    +0.149 HD
ATOM      5  O   LEU A   1       7.182   0.928  22.036  0.00  0.00    -0.274 OA
BRANCH   2   6
ATOM      6  CA  LEU A   1       9.511   0.402  21.516  0.00  0.00    +0.138 C 
BRANCH   6   7
ATOM      7  N   LEU A   1       9.736   1.858  21.608  0.00  0.00    -0.320 NA
ATOM      8  H1  LEU A   1      10.718   2.041  21.388  0.00  0.00    +0.119 HD
ATOM      9  H2  LEU A   1       9.237   2.296  20.828  0.00  0.00    +0.119 HD
ENDBRANCH   6   7
BRANCH   6  10
ATOM     10  CB  LEU A   1      10.249  -0.351  22.634  0.00  0.00    +0.031 C 
BRANCH  10  11
ATOM     11  CG  LEU A   1       9.861   0.052  24.072  0.00  0.00    -0.015 C 
ATOM     12  CD2 LEU A   1       9.284  -1.159  24.810  0.00  0.00    +0.007 C 
ATOM     13  CD1 LEU A   1      11.044   0.620  24.858  0.00  0.00    +0.007 C 
ENDBRANCH  10  11
ENDBRANCH   6  10
ENDBRANCH   2   6
ENDBRANCH   1   3
BRANCH   1  14
ATOM     14  C   GLN A   2       6.207  -3.029  21.498  0.00  0.00    +0.234 C 
ATOM     15  O   GLN A   2       5.767  -3.917  20.769  0.00  0.00    -0.274 OA
ATOM     16  N   SER A   3       6.690  -3.285  22.755  0.00  0.00    -0.301 N 
ATOM     17  H   SER A   3       6.996  -2.531  23.368  0.00  0.00    +0.150 HD
BRANCH  16  18
ATOM     18  CA  SER A   3       6.597  -4.610  23.376  0.00  0.00    +0.184 C 
BRANCH  18  19
ATOM     19  C   SER A   3       5.922  -4.418  24.746  0.00  0.00    +0.236 C 
ATOM     20  N   SER A   4       5.792  -5.544  25.520  0.00  0.00    -0.302 N 
ATOM     21  H   SER A   4       6.333  -6.379  25.302  0.00  0.00    +0.150 HD
ATOM     22  O   SER A   3       5.472  -3.326  25.098  0.00  0.00    -0.274 OA
BRANCH  20  23
ATOM     23  CA  SER A   4       5.295  -5.469  26.896  0.00  0.00    +0.161 C 
BRANCH  23  24
ATOM     24  C   SER A   4       6.492  -5.245  27.809  0.00  0.00    +0.247 C 
ATOM     25  O   SER A   4       7.584  -5.780  27.624  0.00  0.00    -0.299 OA
ENDBRANCH  23  24
BRANCH  23  26
ATOM     26  CB  SER A   4       4.546  -6.732  27.332  0.00  0.00    +0.185 C 
BRANCH  26  27
ATOM     27  OG  SER A   4       5.301  -7.467  28.294  0.00  0.00    -0.393 OA
ATOM     28  H   SER A   4       4.809  -8.292  28.459  0.00  0.00    +0.209 HD
ENDBRANCH  26  27
ENDBRANCH  23  26
ENDBRANCH  20  23
ENDBRANCH  18  19
BRANCH  18  29
ATOM     29  CB  SER A   3       7.969  -5.281  23.495  0.00  0.00    +0.187 C 
BRANCH  29  30
ATOM     30  OG  SER A   3       8.553  -5.053  24.777  0.00  0.00    -0.393 OA
ATOM     31  H   SER A   3       7.988  -4.401  25.229  0.00  0.00    +0.209 HD
ENDBRANCH  29  30
ENDBRANCH  18  29
ENDBRANCH  16  18
ENDBRANCH   1  14
BRANCH   1  32
ATOM     32  CB  GLN A   2       5.649  -1.354  19.658  0.00  0.00    +0.041 C 
BRANCH  32  33
ATOM     33  CG  GLN A   2       5.344   0.100  19.305  0.00  0.00    +0.098 C 
BRANCH  33  34
ATOM     34  CD  GLN A   2       6.268   0.699  18.265  0.00  0.00    +0.211 C 
ATOM     35  OE1 GLN A   2       7.460   0.416  18.205  0.00  0.00    -0.276 OA
ATOM     36  NE2 GLN A   2       5.750   1.655  17.448  0.00  0.00    -0.329 N 
ATOM     37 HE21 GLN A   2       4.759   1.806  17.322  0.00  0.00    +0.145 HD
ATOM     38 HE22 GLN A   2       6.370   2.018  16.734  0.00  0.00    +0.145 HD
ENDBRANCH  33  34
ENDBRANCH  32  33
ENDBRANCH   1  32
TORSDOF 17
ENDMDL
MODEL 2
REMARK VINA RESULT:      -6.4      2.090      3.029
REMARK  Name = LQSS-mmff94.pdb
REMARK  19 active torsions:
REMARK  status: ('A' for Active; 'I' for Inactive)
REMARK    1  A    between atoms: _1  and  _2
REMARK    2  A    between atoms: _2  and  _3
REMARK    3  A    between atoms: _2  and  _5
REMARK    4  A    between atoms: _5  and  _6
REMARK    5  A    between atoms: _6  and  _7
REMARK    6  A    between atoms: _6  and  _8
REMARK    7  A    between atoms: _20  and  _21
REMARK    8  A    between atoms: _21  and  _22
REMARK    9  A    between atoms: _21  and  _24
REMARK   10  A    between atoms: _24  and  _25
REMARK   11  A    between atoms: _25  and  _26
REMARK   12  A    between atoms: _37  and  _38
REMARK   13  A    between atoms: _38  and  _39
REMARK   14  A    between atoms: _38  and  _41
REMARK   15  A    between atoms: _41  and  _42
REMARK   16  A    between atoms: _48  and  _49
REMARK   17  A    between atoms: _49  and  _50
REMARK   18  A    between atoms: _49  and  _52
REMARK   19  A    between atoms: _52  and  _53
REMARK                            x       y       z     vdW  Elec       q    Type
REMARK                         _______ _______ _______ _____ _____    ______ ____
ROOT
ATOM      1  CA  GLN A   2       6.879  -0.808  22.557  0.00  0.00    +0.159 C 
ENDROOT
BRANCH   1   3
ATOM      2  C   LEU A   1       7.789   0.718  24.297  0.00  0.00    +0.230 C 
ATOM      3  N   GLN A   2       7.888  -0.427  23.545  0.00  0.00    -0.303 N 
ATOM      4  H   GLN A   2       8.700  -1.032  23.630  0.00  0.00    +0.149 HD
ATOM      5  O   LEU A   1       6.835   1.489  24.201  0.00  0.00    -0.274 OA
BRANCH   2   6
ATOM      6  CA  LEU A   1       8.981   0.972  25.250  0.00  0.00    +0.138 C 
BRANCH   6   7
ATOM      7  N   LEU A   1       9.183  -0.215  26.104  0.00  0.00    -0.320 NA
ATOM      8  H1  LEU A   1       8.727  -1.011  25.653  0.00  0.00    +0.119 HD
ATOM      9  H2  LEU A   1      10.177  -0.459  26.060  0.00  0.00    +0.119 HD
ENDBRANCH   6   7
BRANCH   6  10
ATOM     10  CB  LEU A   1      10.244   1.298  24.436  0.00  0.00    +0.031 C 
BRANCH  10  11
ATOM     11  CG  LEU A   1      10.067   2.371  23.341  0.00  0.00    -0.015 C 
ATOM     12  CD2 LEU A   1      11.117   3.471  23.522  0.00  0.00    +0.007 C 
ATOM     13  CD1 LEU A   1      10.168   1.788  21.931  0.00  0.00    +0.007 C 
ENDBRANCH  10  11
ENDBRANCH   6  10
ENDBRANCH   2   6
ENDBRANCH   1   3
BRANCH   1  14
ATOM     14  C   GLN A   2       6.257  -2.126  23.060  0.00  0.00    +0.234 C 
ATOM     15  O   GLN A   2       5.552  -2.177  24.067  0.00  0.00    -0.274 OA
ATOM     16  N   SER A   3       6.568  -3.241  22.326  0.00  0.00    -0.301 N 
ATOM     17  H   SER A   3       7.200  -3.190  21.529  0.00  0.00    +0.150 HD
BRANCH  16  18
ATOM     18  CA  SER A   3       6.199  -4.593  22.759  0.00  0.00    +0.184 C 
BRANCH  18  19
ATOM     19  C   SER A   3       7.267  -5.049  23.769  0.00  0.00    +0.236 C 
ATOM     20  N   SER A   4       6.963  -4.870  25.095  0.00  0.00    -0.302 N 
ATOM     21  H   SER A   4       6.002  -4.687  25.378  0.00  0.00    +0.150 HD
ATOM     22  O   SER A   3       8.357  -5.494  23.402  0.00  0.00    -0.274 OA
BRANCH  20  23
ATOM     23  CA  SER A   4       7.832  -5.388  26.154  0.00  0.00    +0.161 C 
BRANCH  23  24
ATOM     24  C   SER A   4       7.060  -5.319  27.463  0.00  0.00    +0.247 C 
ATOM     25  O   SER A   4       7.100  -6.211  28.311  0.00  0.00    -0.299 OA
ENDBRANCH  23  24
BRANCH  23  26
ATOM     26  CB  SER A   4       9.143  -4.608  26.289  0.00  0.00    +0.185 C 
BRANCH  26  27
ATOM     27  OG  SER A   4      10.247  -5.376  25.811  0.00  0.00    -0.393 OA
ATOM     28  H   SER A   4      11.052  -4.920  26.114  0.00  0.00    +0.209 HD
ENDBRANCH  26  27
ENDBRANCH  23  26
ENDBRANCH  20  23
ENDBRANCH  18  19
BRANCH  18  29
ATOM     29  CB  SER A   3       6.073  -5.556  21.574  0.00  0.00    +0.187 C 
BRANCH  29  30
ATOM     30  OG  SER A   3       6.210  -6.914  21.989  0.00  0.00    -0.393 OA
ATOM     31  H   SER A   3       6.532  -6.895  22.908  0.00  0.00    +0.209 HD
ENDBRANCH  29  30
ENDBRANCH  18  29
ENDBRANCH  16  18
ENDBRANCH   1  14
BRANCH   1  32
ATOM     32  CB  GLN A   2       7.526  -0.974  21.173  0.00  0.00    +0.041 C 
BRANCH  32  33
ATOM     33  CG  GLN A   2       7.328   0.225  20.247  0.00  0.00    +0.098 C 
BRANCH  33  34
ATOM     34  CD  GLN A   2       6.621  -0.098  18.947  0.00  0.00    +0.211 C 
ATOM     35  OE1 GLN A   2       6.855   0.508  17.906  0.00  0.00    -0.276 OA
ATOM     36  NE2 GLN A   2       5.629  -1.027  18.990  0.00  0.00    -0.329 N 
ATOM     37 HE21 GLN A   2       5.508  -1.680  19.751  0.00  0.00    +0.145 HD
ATOM     38 HE22 GLN A   2       5.194  -1.259  18.105  0.00  0.00    +0.145 HD
ENDBRANCH  33  34
ENDBRANCH  32  33
ENDBRANCH   1  32
TORSDOF 17
ENDMDL
MODEL 3
REMARK VINA RESULT:      -6.4      2.167      4.915
REMARK  Name = LQSS-mmff94.pdb
REMARK  19 active torsions:
REMARK  status: ('A' for Active; 'I' for Inactive)
REMARK    1  A    between atoms: _1  and  _2
REMARK    2  A    between atoms: _2  and  _3
REMARK    3  A    between atoms: _2  and  _5
REMARK    4  A    between atoms: _5  and  _6
REMARK    5  A    between atoms: _6  and  _7
REMARK    6  A    between atoms: _6  and  _8
REMARK    7  A    between atoms: _20  and  _21
REMARK    8  A    between atoms: _21  and  _22
REMARK    9  A    between atoms: _21  and  _24
REMARK   10  A    between atoms: _24  and  _25
REMARK   11  A    between atoms: _25  and  _26
REMARK   12  A    between atoms: _37  and  _38
REMARK   13  A    between atoms: _38  and  _39
REMARK   14  A    between atoms: _38  and  _41
REMARK   15  A    between atoms: _41  and  _42
REMARK   16  A    between atoms: _48  and  _49
REMARK   17  A    between atoms: _49  and  _50
REMARK   18  A    between atoms: _49  and  _52
REMARK   19  A    between atoms: _52  and  _53
REMARK                            x       y       z     vdW  Elec       q    Type
REMARK                         _______ _______ _______ _____ _____    ______ ____
ROOT
ATOM      1  CA  GLN A   2       9.143  -0.806  23.660  0.00  0.00    +0.159 C 
ENDROOT
BRANCH   1   3
ATOM      2  C   LEU A   1       8.269  -0.459  21.357  0.00  0.00    +0.230 C 
ATOM      3  N   GLN A   2       8.091  -0.896  22.648  0.00  0.00    -0.303 N 
ATOM      4  H   GLN A   2       7.192  -1.264  22.948  0.00  0.00    +0.149 HD
ATOM      5  O   LEU A   1       9.333   0.019  20.964  0.00  0.00    -0.274 OA
BRANCH   2   6
ATOM      6  CA  LEU A   1       7.023  -0.592  20.450  0.00  0.00    +0.138 C 
BRANCH   6   7
ATOM      7  N   LEU A   1       6.026  -1.453  21.117  0.00  0.00    -0.320 NA
ATOM      8  H1  LEU A   1       5.615  -0.922  21.888  0.00  0.00    +0.119 HD
ATOM      9  H2  LEU A   1       5.240  -1.571  20.469  0.00  0.00    +0.119 HD
ENDBRANCH   6   7
BRANCH   6  10
ATOM     10  CB  LEU A   1       6.447   0.799  20.143  0.00  0.00    +0.031 C 
BRANCH  10  11
ATOM     11  CG  LEU A   1       5.444   0.856  18.971  0.00  0.00    -0.015 C 
ATOM     12  CD2 LEU A   1       4.300   1.813  19.318  0.00  0.00    +0.007 C 
ATOM     13  CD1 LEU A   1       6.102   1.291  17.661  0.00  0.00    +0.007 C 
ENDBRANCH  10  11
ENDBRANCH   6  10
ENDBRANCH   2   6
ENDBRANCH   1   3
BRANCH   1  14
ATOM     14  C   GLN A   2       9.462  -2.254  24.081  0.00  0.00    +0.234 C 
ATOM     15  O   GLN A   2      10.434  -2.867  23.641  0.00  0.00    -0.274 OA
ATOM     16  N   SER A   3       8.572  -2.823  24.955  0.00  0.00    -0.301 N 
ATOM     17  H   SER A   3       7.740  -2.322  25.263  0.00  0.00    +0.150 HD
BRANCH  16  18
ATOM     18  CA  SER A   3       8.634  -4.241  25.325  0.00  0.00    +0.184 C 
BRANCH  18  19
ATOM     19  C   SER A   3       7.775  -5.010  24.304  0.00  0.00    +0.236 C 
ATOM     20  N   SER A   4       6.429  -5.066  24.565  0.00  0.00    -0.302 N 
ATOM     21  H   SER A   4       6.014  -4.429  25.243  0.00  0.00    +0.150 HD
ATOM     22  O   SER A   3       8.280  -5.591  23.341  0.00  0.00    -0.274 OA
BRANCH  20  23
ATOM     23  CA  SER A   4       5.489  -5.645  23.603  0.00  0.00    +0.161 C 
BRANCH  23  24
ATOM     24  C   SER A   4       5.024  -4.529  22.680  0.00  0.00    +0.247 C 
ATOM     25  O   SER A   4       5.375  -4.444  21.503  0.00  0.00    -0.299 OA
ENDBRANCH  23  24
BRANCH  23  26
ATOM     26  CB  SER A   4       4.276  -6.300  24.270  0.00  0.00    +0.185 C 
BRANCH  26  27
ATOM     27  OG  SER A   4       4.332  -7.721  24.148  0.00  0.00    -0.393 OA
ATOM     28  H   SER A   4       5.250  -7.941  23.907  0.00  0.00    +0.209 HD
ENDBRANCH  26  27
ENDBRANCH  23  26
ENDBRANCH  20  23
ENDBRANCH  18  19
BRANCH  18  29
ATOM     29  CB  SER A   3       8.170  -4.474  26.766  0.00  0.00    +0.187 C 
BRANCH  29  30
ATOM     30  OG  SER A   3       8.082  -5.866  27.067  0.00  0.00    -0.393 OA
ATOM     31  H   SER A   3       8.962  -6.246  26.891  0.00  0.00    +0.209 HD
ENDBRANCH  29  30
ENDBRANCH  18  29
ENDBRANCH  16  18
ENDBRANCH   1  14
BRANCH   1  32
ATOM     32  CB  GLN A   2       8.665   0.042  24.849  0.00  0.00    +0.041 C 
BRANCH  32  33
ATOM     33  CG  GLN A   2       8.722   1.548  24.601  0.00  0.00    +0.098 C 
BRANCH  33  34
ATOM     34  CD  GLN A   2       9.890   1.998  23.746  0.00  0.00    +0.211 C 
ATOM     35  OE1 GLN A   2      11.054   1.899  24.121  0.00  0.00    -0.276 OA
ATOM     36  NE2 GLN A   2       9.599   2.620  22.572  0.00  0.00    -0.329 N 
ATOM     37 HE21 GLN A   2       8.694   2.577  22.126  0.00  0.00    +0.145 HD
ATOM     38 HE22 GLN A   2      10.390   2.880  21.996  0.00  0.00    +0.145 HD
ENDBRANCH  33  34
ENDBRANCH  32  33
ENDBRANCH   1  32
TORSDOF 17
ENDMDL
MODEL 4
REMARK VINA RESULT:      -6.4      1.972      2.793
REMARK  Name = LQSS-mmff94.pdb
REMARK  19 active torsions:
REMARK  status: ('A' for Active; 'I' for Inactive)
REMARK    1  A    between atoms: _1  and  _2
REMARK    2  A    between atoms: _2  and  _3
REMARK    3  A    between atoms: _2  and  _5
REMARK    4  A    between atoms: _5  and  _6
REMARK    5  A    between atoms: _6  and  _7
REMARK    6  A    between atoms: _6  and  _8
REMARK    7  A    between atoms: _20  and  _21
REMARK    8  A    between atoms: _21  and  _22
REMARK    9  A    between atoms: _21  and  _24
REMARK   10  A    between atoms: _24  and  _25
REMARK   11  A    between atoms: _25  and  _26
REMARK   12  A    between atoms: _37  and  _38
REMARK   13  A    between atoms: _38  and  _39
REMARK   14  A    between atoms: _38  and  _41
REMARK   15  A    between atoms: _41  and  _42
REMARK   16  A    between atoms: _48  and  _49
REMARK   17  A    between atoms: _49  and  _50
REMARK   18  A    between atoms: _49  and  _52
REMARK   19  A    between atoms: _52  and  _53
REMARK                            x       y       z     vdW  Elec       q    Type
REMARK                         _______ _______ _______ _____ _____    ______ ____
ROOT
ATOM      1  CA  GLN A   2       6.722  -0.960  21.582  0.00  0.00    +0.159 C 
ENDROOT
BRANCH   1   3
ATOM      2  C   LEU A   1       7.727  -0.376  23.781  0.00  0.00    +0.230 C 
ATOM      3  N   GLN A   2       7.804  -1.010  22.565  0.00  0.00    -0.303 N 
ATOM      4  H   GLN A   2       8.648  -1.509  22.296  0.00  0.00    +0.149 HD
ATOM      5  O   LEU A   1       6.734   0.261  24.130  0.00  0.00    -0.274 OA
BRANCH   2   6
ATOM      6  CA  LEU A   1       8.993  -0.505  24.660  0.00  0.00    +0.138 C 
BRANCH   6   7
ATOM      7  N   LEU A   1       9.495  -1.891  24.591  0.00  0.00    -0.320 NA
ATOM      8  H1  LEU A   1       8.731  -2.488  24.268  0.00  0.00    +0.119 HD
ATOM      9  H2  LEU A   1      10.169  -1.936  23.820  0.00  0.00    +0.119 HD
ENDBRANCH   6   7
BRANCH   6  10
ATOM     10  CB  LEU A   1      10.059   0.501  24.196  0.00  0.00    +0.031 C 
BRANCH  10  11
ATOM     11  CG  LEU A   1       9.529   1.700  23.383  0.00  0.00    -0.015 C 
ATOM     12  CD2 LEU A   1       9.860   3.005  24.112  0.00  0.00    +0.007 C 
ATOM     13  CD1 LEU A   1      10.100   1.741  21.965  0.00  0.00    +0.007 C 
ENDBRANCH  10  11
ENDBRANCH   6  10
ENDBRANCH   2   6
ENDBRANCH   1   3
BRANCH   1  14
ATOM     14  C   GLN A   2       6.226  -2.409  21.409  0.00  0.00    +0.234 C 
ATOM     15  O   GLN A   2       5.470  -2.740  20.497  0.00  0.00    -0.274 OA
ATOM     16  N   SER A   3       6.660  -3.297  22.360  0.00  0.00    -0.301 N 
ATOM     17  H   SER A   3       7.238  -2.994  23.142  0.00  0.00    +0.150 HD
BRANCH  16  18
ATOM     18  CA  SER A   3       6.152  -4.670  22.439  0.00  0.00    +0.184 C 
BRANCH  18  19
ATOM     19  C   SER A   3       6.414  -5.164  23.874  0.00  0.00    +0.236 C 
ATOM     20  N   SER A   4       7.556  -4.699  24.475  0.00  0.00    -0.302 N 
ATOM     21  H   SER A   4       8.044  -3.893  24.089  0.00  0.00    +0.150 HD
ATOM     22  O   SER A   3       5.669  -5.978  24.424  0.00  0.00    -0.274 OA
BRANCH  20  23
ATOM     23  CA  SER A   4       7.846  -4.982  25.883  0.00  0.00    +0.161 C 
BRANCH  23  24
ATOM     24  C   SER A   4       7.139  -3.929  26.723  0.00  0.00    +0.247 C 
ATOM     25  O   SER A   4       7.291  -2.720  26.547  0.00  0.00    -0.299 OA
ENDBRANCH  23  24
BRANCH  23  26
ATOM     26  CB  SER A   4       9.344  -4.972  26.200  0.00  0.00    +0.185 C 
BRANCH  26  27
ATOM     27  OG  SER A   4      10.073  -5.743  25.245  0.00  0.00    -0.393 OA
ATOM     28  H   SER A   4       9.746  -6.658  25.322  0.00  0.00    +0.209 HD
ENDBRANCH  26  27
ENDBRANCH  23  26
ENDBRANCH  20  23
ENDBRANCH  18  19
BRANCH  18  29
ATOM     29  CB  SER A   3       6.795  -5.578  21.387  0.00  0.00    +0.187 C 
BRANCH  29  30
ATOM     30  OG  SER A   3       6.009  -5.637  20.197  0.00  0.00    -0.393 OA
ATOM     31  H   SER A   3       5.087  -5.779  20.477  0.00  0.00    +0.209 HD
ENDBRANCH  29  30
ENDBRANCH  18  29
ENDBRANCH  16  18
ENDBRANCH   1  14
BRANCH   1  32
ATOM     32  CB  GLN A   2       7.234  -0.370  20.258  0.00  0.00    +0.041 C 
BRANCH  32  33
ATOM     33  CG  GLN A   2       6.339   0.723  19.679  0.00  0.00    +0.098 C 
BRANCH  33  34
ATOM     34  CD  GLN A   2       5.951   0.514  18.229  0.00  0.00    +0.211 C 
ATOM     35  OE1 GLN A   2       5.979  -0.591  17.696  0.00  0.00    -0.276 OA
ATOM     36  NE2 GLN A   2       5.663   1.621  17.495  0.00  0.00    -0.329 N 
ATOM     37 HE21 GLN A   2       5.449   2.521  17.900  0.00  0.00    +0.145 HD
ATOM     38 HE22 GLN A   2       5.369   1.460  16.539  0.00  0.00    +0.145 HD
ENDBRANCH  33  34
ENDBRANCH  32  33
ENDBRANCH   1  32
TORSDOF 17
ENDMDL
MODEL 5
REMARK VINA RESULT:      -6.3      2.336      4.567
REMARK  Name = LQSS-mmff94.pdb
REMARK  19 active torsions:
REMARK  status: ('A' for Active; 'I' for Inactive)
REMARK    1  A    between atoms: _1  and  _2
REMARK    2  A    between atoms: _2  and  _3
REMARK    3  A    between atoms: _2  and  _5
REMARK    4  A    between atoms: _5  and  _6
REMARK    5  A    between atoms: _6  and  _7
REMARK    6  A    between atoms: _6  and  _8
REMARK    7  A    between atoms: _20  and  _21
REMARK    8  A    between atoms: _21  and  _22
REMARK    9  A    between atoms: _21  and  _24
REMARK   10  A    between atoms: _24  and  _25
REMARK   11  A    between atoms: _25  and  _26
REMARK   12  A    between atoms: _37  and  _38
REMARK   13  A    between atoms: _38  and  _39
REMARK   14  A    between atoms: _38  and  _41
REMARK   15  A    between atoms: _41  and  _42
REMARK   16  A    between atoms: _48  and  _49
REMARK   17  A    between atoms: _49  and  _50
REMARK   18  A    between atoms: _49  and  _52
REMARK   19  A    between atoms: _52  and  _53
REMARK                            x       y       z     vdW  Elec       q    Type
REMARK                         _______ _______ _______ _____ _____    ______ ____
ROOT
ATOM      1  CA  GLN A   2       8.793  -1.848  22.816  0.00  0.00    +0.159 C 
ENDROOT
BRANCH   1   3
ATOM      2  C   LEU A   1       9.841   0.389  23.106  0.00  0.00    +0.230 C 
ATOM      3  N   GLN A   2       8.788  -0.390  22.693  0.00  0.00    -0.303 N 
ATOM      4  H   GLN A   2       7.946   0.037  22.318  0.00  0.00    +0.149 HD
ATOM      5  O   LEU A   1      10.865  -0.091  23.591  0.00  0.00    -0.274 OA
BRANCH   2   6
ATOM      6  CA  LEU A   1       9.625   1.911  22.938  0.00  0.00    +0.138 C 
BRANCH   6   7
ATOM      7  N   LEU A   1      10.063   2.319  21.589  0.00  0.00    -0.320 NA
ATOM      8  H1  LEU A   1      10.089   3.340  21.560  0.00  0.00    +0.119 HD
ATOM      9  H2  LEU A   1      11.048   2.057  21.493  0.00  0.00    +0.119 HD
ENDBRANCH   6   7
BRANCH   6  10
ATOM     10  CB  LEU A   1       8.148   2.262  23.178  0.00  0.00    +0.031 C 
BRANCH  10  11
ATOM     11  CG  LEU A   1       7.457   3.038  22.037  0.00  0.00    -0.015 C 
ATOM     12  CD2 LEU A   1       6.276   2.224  21.501  0.00  0.00    +0.007 C 
ATOM     13  CD1 LEU A   1       6.974   4.419  22.480  0.00  0.00    +0.007 C 
ENDBRANCH  10  11
ENDBRANCH   6  10
ENDBRANCH   2   6
ENDBRANCH   1   3
BRANCH   1  14
ATOM     14  C   GLN A   2       7.510  -2.345  22.121  0.00  0.00    +0.234 C 
ATOM     15  O   GLN A   2       6.748  -1.584  21.526  0.00  0.00    -0.274 OA
ATOM     16  N   SER A   3       7.260  -3.688  22.237  0.00  0.00    -0.301 N 
ATOM     17  H   SER A   3       7.871  -4.294  22.782  0.00  0.00    +0.150 HD
BRANCH  16  18
ATOM     18  CA  SER A   3       6.006  -4.295  21.781  0.00  0.00    +0.184 C 
BRANCH  18  19
ATOM     19  C   SER A   3       5.121  -4.490  23.026  0.00  0.00    +0.236 C 
ATOM     20  N   SER A   4       5.780  -4.610  24.223  0.00  0.00    -0.302 N 
ATOM     21  H   SER A   4       6.757  -4.333  24.299  0.00  0.00    +0.150 HD
ATOM     22  O   SER A   3       3.896  -4.591  22.940  0.00  0.00    -0.274 OA
BRANCH  20  23
ATOM     23  CA  SER A   4       5.051  -4.659  25.493  0.00  0.00    +0.161 C 
BRANCH  23  24
ATOM     24  C   SER A   4       5.539  -3.502  26.353  0.00  0.00    +0.247 C 
ATOM     25  O   SER A   4       6.647  -3.488  26.888  0.00  0.00    -0.299 OA
ENDBRANCH  23  24
BRANCH  23  26
ATOM     26  CB  SER A   4       5.247  -5.978  26.246  0.00  0.00    +0.185 C 
BRANCH  26  27
ATOM     27  OG  SER A   4       6.627  -6.201  26.533  0.00  0.00    -0.393 OA
ATOM     28  H   SER A   4       7.131  -5.634  25.921  0.00  0.00    +0.209 HD
ENDBRANCH  26  27
ENDBRANCH  23  26
ENDBRANCH  20  23
ENDBRANCH  18  19
BRANCH  18  29
ATOM     29  CB  SER A   3       6.247  -5.608  21.030  0.00  0.00    +0.187 C 
BRANCH  29  30
ATOM     30  OG  SER A   3       6.018  -6.739  21.869  0.00  0.00    -0.393 OA
ATOM     31  H   SER A   3       6.893  -7.084  22.121  0.00  0.00    +0.209 HD
ENDBRANCH  29  30
ENDBRANCH  18  29
ENDBRANCH  16  18
ENDBRANCH   1  14
BRANCH   1  32
ATOM     32  CB  GLN A   2       8.833  -2.255  24.298  0.00  0.00    +0.041 C 
BRANCH  32  33
ATOM     33  CG  GLN A   2       9.880  -3.319  24.621  0.00  0.00    +0.098 C 
BRANCH  33  34
ATOM     34  CD  GLN A   2       9.306  -4.655  25.045  0.00  0.00    +0.211 C 
ATOM     35  OE1 GLN A   2       8.704  -5.387  24.266  0.00  0.00    -0.276 OA
ATOM     36  NE2 GLN A   2       9.392  -4.981  26.363  0.00  0.00    -0.329 N 
ATOM     37 HE21 GLN A   2      10.017  -4.524  27.011  0.00  0.00    +0.145 HD
ATOM     38 HE22 GLN A   2       9.038  -5.893  26.622  0.00  0.00    +0.145 HD
ENDBRANCH  33  34
ENDBRANCH  32  33
ENDBRANCH   1  32
TORSDOF 17
ENDMDL
MODEL 6
REMARK VINA RESULT:      -6.3      2.201      5.046
REMARK  Name = LQSS-mmff94.pdb
REMARK  19 active torsions:
REMARK  status: ('A' for Active; 'I' for Inactive)
REMARK    1  A    between atoms: _1  and  _2
REMARK    2  A    between atoms: _2  and  _3
REMARK    3  A    between atoms: _2  and  _5
REMARK    4  A    between atoms: _5  and  _6
REMARK    5  A    between atoms: _6  and  _7
REMARK    6  A    between atoms: _6  and  _8
REMARK    7  A    between atoms: _20  and  _21
REMARK    8  A    between atoms: _21  and  _22
REMARK    9  A    between atoms: _21  and  _24
REMARK   10  A    between atoms: _24  and  _25
REMARK   11  A    between atoms: _25  and  _26
REMARK   12  A    between atoms: _37  and  _38
REMARK   13  A    between atoms: _38  and  _39
REMARK   14  A    between atoms: _38  and  _41
REMARK   15  A    between atoms: _41  and  _42
REMARK   16  A    between atoms: _48  and  _49
REMARK   17  A    between atoms: _49  and  _50
REMARK   18  A    between atoms: _49  and  _52
REMARK   19  A    between atoms: _52  and  _53
REMARK                            x       y       z     vdW  Elec       q    Type
REMARK                         _______ _______ _______ _____ _____    ______ ____
ROOT
ATOM      1  CA  GLN A   2       9.419  -0.584  24.110  0.00  0.00    +0.159 C 
ENDROOT
BRANCH   1   3
ATOM      2  C   LEU A   1       8.609   0.322  21.941  0.00  0.00    +0.230 C 
ATOM      3  N   GLN A   2       8.364  -0.314  23.134  0.00  0.00    -0.303 N 
ATOM      4  H   GLN A   2       7.419  -0.584  23.390  0.00  0.00    +0.149 HD
ATOM      5  O   LEU A   1       9.735   0.690  21.608  0.00  0.00    -0.274 OA
BRANCH   2   6
ATOM      6  CA  LEU A   1       7.355   0.561  21.066  0.00  0.00    +0.138 C 
BRANCH   6   7
ATOM      7  N   LEU A   1       6.807   1.901  21.356  0.00  0.00    -0.320 NA
ATOM      8  H1  LEU A   1       7.396   2.592  20.886  0.00  0.00    +0.119 HD
ATOM      9  H2  LEU A   1       5.913   1.981  20.861  0.00  0.00    +0.119 HD
ENDBRANCH   6   7
BRANCH   6  10
ATOM     10  CB  LEU A   1       7.717   0.413  19.579  0.00  0.00    +0.031 C 
BRANCH  10  11
ATOM     11  CG  LEU A   1       6.603  -0.164  18.681  0.00  0.00    -0.015 C 
ATOM     12  CD2 LEU A   1       5.766  -1.169  19.476  0.00  0.00    +0.007 C 
ATOM     13  CD1 LEU A   1       5.695   0.924  18.106  0.00  0.00    +0.007 C 
ENDBRANCH  10  11
ENDBRANCH   6  10
ENDBRANCH   2   6
ENDBRANCH   1   3
BRANCH   1  14
ATOM     14  C   GLN A   2       9.762  -2.080  23.974  0.00  0.00    +0.234 C 
ATOM     15  O   GLN A   2      10.431  -2.518  23.038  0.00  0.00    -0.274 OA
ATOM     16  N   SER A   3       9.245  -2.894  24.948  0.00  0.00    -0.301 N 
ATOM     17  H   SER A   3       8.644  -2.524  25.682  0.00  0.00    +0.150 HD
BRANCH  16  18
ATOM     18  CA  SER A   3       9.334  -4.357  24.877  0.00  0.00    +0.184 C 
BRANCH  18  19
ATOM     19  C   SER A   3       8.094  -4.846  24.108  0.00  0.00    +0.236 C 
ATOM     20  N   SER A   4       6.901  -4.260  24.446  0.00  0.00    -0.302 N 
ATOM     21  H   SER A   4       6.891  -3.393  24.981  0.00  0.00    +0.150 HD
ATOM     22  O   SER A   3       8.164  -5.755  23.278  0.00  0.00    -0.274 OA
BRANCH  20  23
ATOM     23  CA  SER A   4       5.675  -4.537  23.694  0.00  0.00    +0.161 C 
BRANCH  23  24
ATOM     24  C   SER A   4       5.519  -3.447  22.643  0.00  0.00    +0.247 C 
ATOM     25  O   SER A   4       5.996  -2.320  22.773  0.00  0.00    -0.299 OA
ENDBRANCH  23  24
BRANCH  23  26
ATOM     26  CB  SER A   4       4.425  -4.579  24.579  0.00  0.00    +0.185 C 
BRANCH  26  27
ATOM     27  OG  SER A   4       4.693  -4.023  25.866  0.00  0.00    -0.393 OA
ATOM     28  H   SER A   4       5.660  -4.057  25.985  0.00  0.00    +0.209 HD
ENDBRANCH  26  27
ENDBRANCH  23  26
ENDBRANCH  20  23
ENDBRANCH  18  19
BRANCH  18  29
ATOM     29  CB  SER A   3       9.441  -4.989  26.268  0.00  0.00    +0.187 C 
BRANCH  29  30
ATOM     30  OG  SER A   3       8.345  -5.865  26.529  0.00  0.00    -0.393 OA
ATOM     31  H   SER A   3       8.554  -6.712  26.095  0.00  0.00    +0.209 HD
ENDBRANCH  29  30
ENDBRANCH  18  29
ENDBRANCH  16  18
ENDBRANCH   1  14
BRANCH   1  32
ATOM     32  CB  GLN A   2       8.933  -0.237  25.527  0.00  0.00    +0.041 C 
BRANCH  32  33
ATOM     33  CG  GLN A   2       7.449   0.116  25.604  0.00  0.00    +0.098 C 
BRANCH  33  34
ATOM     34  CD  GLN A   2       6.545  -1.048  25.955  0.00  0.00    +0.211 C 
ATOM     35  OE1 GLN A   2       6.945  -2.023  26.582  0.00  0.00    -0.276 OA
ATOM     36  NE2 GLN A   2       5.279  -1.026  25.457  0.00  0.00    -0.329 N 
ATOM     37 HE21 GLN A   2       4.836  -0.194  25.095  0.00  0.00    +0.145 HD
ATOM     38 HE22 GLN A   2       4.677  -1.792  25.733  0.00  0.00    +0.145 HD
ENDBRANCH  33  34
ENDBRANCH  32  33
ENDBRANCH   1  32
TORSDOF 17
ENDMDL
MODEL 7
REMARK VINA RESULT:      -6.3      2.262      7.238
REMARK  Name = LQSS-mmff94.pdb
REMARK  19 active torsions:
REMARK  status: ('A' for Active; 'I' for Inactive)
REMARK    1  A    between atoms: _1  and  _2
REMARK    2  A    between atoms: _2  and  _3
REMARK    3  A    between atoms: _2  and  _5
REMARK    4  A    between atoms: _5  and  _6
REMARK    5  A    between atoms: _6  and  _7
REMARK    6  A    between atoms: _6  and  _8
REMARK    7  A    between atoms: _20  and  _21
REMARK    8  A    between atoms: _21  and  _22
REMARK    9  A    between atoms: _21  and  _24
REMARK   10  A    between atoms: _24  and  _25
REMARK   11  A    between atoms: _25  and  _26
REMARK   12  A    between atoms: _37  and  _38
REMARK   13  A    between atoms: _38  and  _39
REMARK   14  A    between atoms: _38  and  _41
REMARK   15  A    between atoms: _41  and  _42
REMARK   16  A    between atoms: _48  and  _49
REMARK   17  A    between atoms: _49  and  _50
REMARK   18  A    between atoms: _49  and  _52
REMARK   19  A    between atoms: _52  and  _53
REMARK                            x       y       z     vdW  Elec       q    Type
REMARK                         _______ _______ _______ _____ _____    ______ ____
ROOT
ATOM      1  CA  GLN A   2       7.934  -1.011  25.293  0.00  0.00    +0.159 C 
ENDROOT
BRANCH   1   3
ATOM      2  C   LEU A   1       7.455  -3.386  25.853  0.00  0.00    +0.230 C 
ATOM      3  N   GLN A   2       7.869  -2.432  24.955  0.00  0.00    -0.303 N 
ATOM      4  H   GLN A   2       8.184  -2.700  24.027  0.00  0.00    +0.149 HD
ATOM      5  O   LEU A   1       7.094  -3.104  26.995  0.00  0.00    -0.274 OA
BRANCH   2   6
ATOM      6  CA  LEU A   1       7.504  -4.839  25.323  0.00  0.00    +0.138 C 
BRANCH   6   7
ATOM      7  N   LEU A   1       8.031  -5.725  26.380  0.00  0.00    -0.320 NA
ATOM      8  H1  LEU A   1       7.250  -6.003  26.978  0.00  0.00    +0.119 HD
ATOM      9  H2  LEU A   1       8.308  -6.604  25.933  0.00  0.00    +0.119 HD
ENDBRANCH   6   7
BRANCH   6  10
ATOM     10  CB  LEU A   1       6.103  -5.279  24.870  0.00  0.00    +0.031 C 
BRANCH  10  11
ATOM     11  CG  LEU A   1       5.886  -5.329  23.343  0.00  0.00    -0.015 C 
ATOM     12  CD2 LEU A   1       5.131  -4.077  22.887  0.00  0.00    +0.007 C 
ATOM     13  CD1 LEU A   1       7.201  -5.448  22.570  0.00  0.00    +0.007 C 
ENDBRANCH  10  11
ENDBRANCH   6  10
ENDBRANCH   2   6
ENDBRANCH   1   3
BRANCH   1  14
ATOM     14  C   GLN A   2       7.017  -0.285  24.290  0.00  0.00    +0.234 C 
ATOM     15  O   GLN A   2       5.918  -0.732  23.963  0.00  0.00    -0.274 OA
ATOM     16  N   SER A   3       7.522   0.876  23.763  0.00  0.00    -0.301 N 
ATOM     17  H   SER A   3       8.457   1.201  23.999  0.00  0.00    +0.150 HD
BRANCH  16  18
ATOM     18  CA  SER A   3       6.854   1.598  22.675  0.00  0.00    +0.184 C 
BRANCH  18  19
ATOM     19  C   SER A   3       7.168   0.840  21.373  0.00  0.00    +0.236 C 
ATOM     20  N   SER A   4       6.288  -0.153  21.023  0.00  0.00    -0.302 N 
ATOM     21  H   SER A   4       5.370  -0.200  21.462  0.00  0.00    +0.150 HD
ATOM     22  O   SER A   3       8.184   1.075  20.716  0.00  0.00    -0.274 OA
BRANCH  20  23
ATOM     23  CA  SER A   4       6.397  -0.851  19.740  0.00  0.00    +0.161 C 
BRANCH  23  24
ATOM     24  C   SER A   4       5.598  -0.062  18.713  0.00  0.00    +0.247 C 
ATOM     25  O   SER A   4       5.813  -0.128  17.503  0.00  0.00    -0.299 OA
ENDBRANCH  23  24
BRANCH  23  26
ATOM     26  CB  SER A   4       5.880  -2.292  19.796  0.00  0.00    +0.185 C 
BRANCH  26  27
ATOM     27  OG  SER A   4       5.316  -2.681  18.544  0.00  0.00    -0.393 OA
ATOM     28  H   SER A   4       4.358  -2.783  18.693  0.00  0.00    +0.209 HD
ENDBRANCH  26  27
ENDBRANCH  23  26
ENDBRANCH  20  23
ENDBRANCH  18  19
BRANCH  18  29
ATOM     29  CB  SER A   3       7.293   3.065  22.612  0.00  0.00    +0.187 C 
BRANCH  29  30
ATOM     30  OG  SER A   3       8.699   3.181  22.401  0.00  0.00    -0.393 OA
ATOM     31  H   SER A   3       9.057   3.668  23.165  0.00  0.00    +0.209 HD
ENDBRANCH  29  30
ENDBRANCH  18  29
ENDBRANCH  16  18
ENDBRANCH   1  14
BRANCH   1  32
ATOM     32  CB  GLN A   2       9.385  -0.510  25.205  0.00  0.00    +0.041 C 
BRANCH  32  33
ATOM     33  CG  GLN A   2      10.224  -1.221  24.145  0.00  0.00    +0.098 C 
BRANCH  33  34
ATOM     34  CD  GLN A   2      10.370  -0.457  22.845  0.00  0.00    +0.211 C 
ATOM     35  OE1 GLN A   2      10.555   0.755  22.814  0.00  0.00    -0.276 OA
ATOM     36  NE2 GLN A   2      10.187  -1.152  21.690  0.00  0.00    -0.329 N 
ATOM     37 HE21 GLN A   2      10.210  -2.160  21.635  0.00  0.00    +0.145 HD
ATOM     38 HE22 GLN A   2      10.326  -0.635  20.830  0.00  0.00    +0.145 HD
ENDBRANCH  33  34
ENDBRANCH  32  33
ENDBRANCH   1  32
TORSDOF 17
ENDMDL
MODEL 8
REMARK VINA RESULT:      -6.3      2.603      3.757
REMARK  Name = LQSS-mmff94.pdb
REMARK  19 active torsions:
REMARK  status: ('A' for Active; 'I' for Inactive)
REMARK    1  A    between atoms: _1  and  _2
REMARK    2  A    between atoms: _2  and  _3
REMARK    3  A    between atoms: _2  and  _5
REMARK    4  A    between atoms: _5  and  _6
REMARK    5  A    between atoms: _6  and  _7
REMARK    6  A    between atoms: _6  and  _8
REMARK    7  A    between atoms: _20  and  _21
REMARK    8  A    between atoms: _21  and  _22
REMARK    9  A    between atoms: _21  and  _24
REMARK   10  A    between atoms: _24  and  _25
REMARK   11  A    between atoms: _25  and  _26
REMARK   12  A    between atoms: _37  and  _38
REMARK   13  A    between atoms: _38  and  _39
REMARK   14  A    between atoms: _38  and  _41
REMARK   15  A    between atoms: _41  and  _42
REMARK   16  A    between atoms: _48  and  _49
REMARK   17  A    between atoms: _49  and  _50
REMARK   18  A    between atoms: _49  and  _52
REMARK   19  A    between atoms: _52  and  _53
REMARK                            x       y       z     vdW  Elec       q    Type
REMARK                         _______ _______ _______ _____ _____    ______ ____
ROOT
ATOM      1  CA  GLN A   2       7.800  -0.486  22.002  0.00  0.00    +0.159 C 
ENDROOT
BRANCH   1   3
ATOM      2  C   LEU A   1       7.126   1.151  23.748  0.00  0.00    +0.230 C 
ATOM      3  N   GLN A   2       7.947   0.786  22.708  0.00  0.00    -0.303 N 
ATOM      4  H   GLN A   2       8.666   1.420  22.371  0.00  0.00    +0.149 HD
ATOM      5  O   LEU A   1       6.227   0.423  24.165  0.00  0.00    -0.274 OA
BRANCH   2   6
ATOM      6  CA  LEU A   1       7.407   2.556  24.332  0.00  0.00    +0.138 C 
BRANCH   6   7
ATOM      7  N   LEU A   1       8.020   2.414  25.667  0.00  0.00    -0.320 NA
ATOM      8  H1  LEU A   1       7.275   2.467  26.364  0.00  0.00    +0.119 HD
ATOM      9  H2  LEU A   1       8.352   1.449  25.752  0.00  0.00    +0.119 HD
ENDBRANCH   6   7
BRANCH   6  10
ATOM     10  CB  LEU A   1       8.317   3.348  23.379  0.00  0.00    +0.031 C 
BRANCH  10  11
ATOM     11  CG  LEU A   1       9.651   3.831  23.985  0.00  0.00    -0.015 C 
ATOM     12  CD2 LEU A   1      10.816   3.085  23.329  0.00  0.00    +0.007 C 
ATOM     13  CD1 LEU A   1       9.851   5.339  23.829  0.00  0.00    +0.007 C 
ENDBRANCH  10  11
ENDBRANCH   6  10
ENDBRANCH   2   6
ENDBRANCH   1   3
BRANCH   1  14
ATOM     14  C   GLN A   2       8.699  -1.497  22.741  0.00  0.00    +0.234 C 
ATOM     15  O   GLN A   2       9.863  -1.712  22.402  0.00  0.00    -0.274 OA
ATOM     16  N   SER A   3       8.105  -2.164  23.781  0.00  0.00    -0.301 N 
ATOM     17  H   SER A   3       7.123  -2.017  24.011  0.00  0.00    +0.150 HD
BRANCH  16  18
ATOM     18  CA  SER A   3       8.762  -3.273  24.479  0.00  0.00    +0.184 C 
BRANCH  18  19
ATOM     19  C   SER A   3       8.164  -4.576  23.916  0.00  0.00    +0.236 C 
ATOM     20  N   SER A   4       6.860  -4.511  23.494  0.00  0.00    -0.302 N 
ATOM     21  H   SER A   4       6.419  -3.607  23.335  0.00  0.00    +0.150 HD
ATOM     22  O   SER A   3       8.806  -5.628  23.902  0.00  0.00    -0.274 OA
BRANCH  20  23
ATOM     23  CA  SER A   4       6.223  -5.640  22.813  0.00  0.00    +0.161 C 
BRANCH  23  24
ATOM     24  C   SER A   4       6.136  -5.299  21.332  0.00  0.00    +0.247 C 
ATOM     25  O   SER A   4       5.805  -4.186  20.921  0.00  0.00    -0.299 OA
ENDBRANCH  23  24
BRANCH  23  26
ATOM     26  CB  SER A   4       4.824  -5.953  23.351  0.00  0.00    +0.185 C 
BRANCH  26  27
ATOM     27  OG  SER A   4       4.717  -7.325  23.729  0.00  0.00    -0.393 OA
ATOM     28  H   SER A   4       4.591  -7.336  24.695  0.00  0.00    +0.209 HD
ENDBRANCH  26  27
ENDBRANCH  23  26
ENDBRANCH  20  23
ENDBRANCH  18  19
BRANCH  18  29
ATOM     29  CB  SER A   3       8.595  -3.169  25.998  0.00  0.00    +0.187 C 
BRANCH  29  30
ATOM     30  OG  SER A   3       8.980  -4.378  26.650  0.00  0.00    -0.393 OA
ATOM     31  H   SER A   3       9.692  -4.146  27.273  0.00  0.00    +0.209 HD
ENDBRANCH  29  30
ENDBRANCH  18  29
ENDBRANCH  16  18
ENDBRANCH   1  14
BRANCH   1  32
ATOM     32  CB  GLN A   2       8.212  -0.327  20.529  0.00  0.00    +0.041 C 
BRANCH  32  33
ATOM     33  CG  GLN A   2       7.184   0.411  19.674  0.00  0.00    +0.098 C 
BRANCH  33  34
ATOM     34  CD  GLN A   2       6.243  -0.494  18.905  0.00  0.00    +0.211 C 
ATOM     35  OE1 GLN A   2       6.089  -0.401  17.691  0.00  0.00    -0.276 OA
ATOM     36  NE2 GLN A   2       5.484  -1.361  19.627  0.00  0.00    -0.329 N 
ATOM     37 HE21 GLN A   2       5.681  -1.613  20.584  0.00  0.00    +0.145 HD
ATOM     38 HE22 GLN A   2       4.888  -1.984  19.095  0.00  0.00    +0.145 HD
ENDBRANCH  33  34
ENDBRANCH  32  33
ENDBRANCH   1  32
TORSDOF 17
ENDMDL
MODEL 9
REMARK VINA RESULT:      -6.2      2.098      4.863
REMARK  Name = LQSS-mmff94.pdb
REMARK  19 active torsions:
REMARK  status: ('A' for Active; 'I' for Inactive)
REMARK    1  A    between atoms: _1  and  _2
REMARK    2  A    between atoms: _2  and  _3
REMARK    3  A    between atoms: _2  and  _5
REMARK    4  A    between atoms: _5  and  _6
REMARK    5  A    between atoms: _6  and  _7
REMARK    6  A    between atoms: _6  and  _8
REMARK    7  A    between atoms: _20  and  _21
REMARK    8  A    between atoms: _21  and  _22
REMARK    9  A    between atoms: _21  and  _24
REMARK   10  A    between atoms: _24  and  _25
REMARK   11  A    between atoms: _25  and  _26
REMARK   12  A    between atoms: _37  and  _38
REMARK   13  A    between atoms: _38  and  _39
REMARK   14  A    between atoms: _38  and  _41
REMARK   15  A    between atoms: _41  and  _42
REMARK   16  A    between atoms: _48  and  _49
REMARK   17  A    between atoms: _49  and  _50
REMARK   18  A    between atoms: _49  and  _52
REMARK   19  A    between atoms: _52  and  _53
REMARK                            x       y       z     vdW  Elec       q    Type
REMARK                         _______ _______ _______ _____ _____    ______ ____
ROOT
ATOM      1  CA  GLN A   2       9.697  -1.347  23.825  0.00  0.00    +0.159 C 
ENDROOT
BRANCH   1   3
ATOM      2  C   LEU A   1       8.567  -0.364  21.839  0.00  0.00    +0.230 C 
ATOM      3  N   GLN A   2       8.502  -0.981  23.065  0.00  0.00    -0.303 N 
ATOM      4  H   GLN A   2       7.603  -1.168  23.502  0.00  0.00    +0.149 HD
ATOM      5  O   LEU A   1       9.636  -0.096  21.292  0.00  0.00    -0.274 OA
BRANCH   2   6
ATOM      6  CA  LEU A   1       7.195  -0.012  21.218  0.00  0.00    +0.138 C 
BRANCH   6   7
ATOM      7  N   LEU A   1       6.517   0.986  22.068  0.00  0.00    -0.320 NA
ATOM      8  H1  LEU A   1       7.202   1.357  22.729  0.00  0.00    +0.119 HD
ATOM      9  H2  LEU A   1       6.300   1.795  21.478  0.00  0.00    +0.119 HD
ENDBRANCH   6   7
BRANCH   6  10
ATOM     10  CB  LEU A   1       7.386   0.510  19.785  0.00  0.00    +0.031 C 
BRANCH  10  11
ATOM     11  CG  LEU A   1       6.283   0.113  18.782  0.00  0.00    -0.015 C 
ATOM     12  CD2 LEU A   1       5.732  -1.270  19.140  0.00  0.00    +0.007 C 
ATOM     13  CD1 LEU A   1       5.139   1.129  18.741  0.00  0.00    +0.007 C 
ENDBRANCH  10  11
ENDBRANCH   6  10
ENDBRANCH   2   6
ENDBRANCH   1   3
BRANCH   1  14
ATOM     14  C   GLN A   2       9.470  -2.789  24.319  0.00  0.00    +0.234 C 
ATOM     15  O   GLN A   2      10.289  -3.687  24.124  0.00  0.00    -0.274 OA
ATOM     16  N   SER A   3       8.280  -3.011  24.963  0.00  0.00    -0.301 N 
ATOM     17  H   SER A   3       7.588  -2.270  25.065  0.00  0.00    +0.150 HD
BRANCH  16  18
ATOM     18  CA  SER A   3       7.835  -4.354  25.348  0.00  0.00    +0.184 C 
BRANCH  18  19
ATOM     19  C   SER A   3       6.324  -4.426  25.059  0.00  0.00    +0.236 C 
ATOM     20  N   SER A   4       5.832  -5.660  24.714  0.00  0.00    -0.302 N 
ATOM     21  H   SER A   4       6.384  -6.497  24.889  0.00  0.00    +0.150 HD
ATOM     22  O   SER A   3       5.612  -3.420  25.081  0.00  0.00    -0.274 OA
BRANCH  20  23
ATOM     23  CA  SER A   4       4.394  -5.889  24.552  0.00  0.00    +0.161 C 
BRANCH  23  24
ATOM     24  C   SER A   4       4.074  -7.257  25.137  0.00  0.00    +0.247 C 
ATOM     25  O   SER A   4       3.230  -8.011  24.653  0.00  0.00    -0.299 OA
ENDBRANCH  23  24
BRANCH  23  26
ATOM     26  CB  SER A   4       3.940  -5.835  23.091  0.00  0.00    +0.185 C 
BRANCH  26  27
ATOM     27  OG  SER A   4       4.304  -4.594  22.488  0.00  0.00    -0.393 OA
ATOM     28  H   SER A   4       5.013  -4.796  21.849  0.00  0.00    +0.209 HD
ENDBRANCH  26  27
ENDBRANCH  23  26
ENDBRANCH  20  23
ENDBRANCH  18  19
BRANCH  18  29
ATOM     29  CB  SER A   3       8.161  -4.666  26.812  0.00  0.00    +0.187 C 
BRANCH  29  30
ATOM     30  OG  SER A   3       7.773  -5.993  27.162  0.00  0.00    -0.393 OA
ATOM     31  H   SER A   3       8.591  -6.477  27.377  0.00  0.00    +0.209 HD
ENDBRANCH  29  30
ENDBRANCH  18  29
ENDBRANCH  16  18
ENDBRANCH   1  14
BRANCH   1  32
ATOM     32  CB  GLN A   2       9.904  -0.369  24.992  0.00  0.00    +0.041 C 
BRANCH  32  33
ATOM     33  CG  GLN A   2      10.788   0.828  24.650  0.00  0.00    +0.098 C 
BRANCH  33  34
ATOM     34  CD  GLN A   2      10.036   2.030  24.114  0.00  0.00    +0.211 C 
ATOM     35  OE1 GLN A   2       8.814   2.115  24.164  0.00  0.00    -0.276 OA
ATOM     36  NE2 GLN A   2      10.763   2.984  23.473  0.00  0.00    -0.329 N 
ATOM     37 HE21 GLN A   2      11.766   3.068  23.550  0.00  0.00    +0.145 HD
ATOM     38 HE22 GLN A   2      10.251   3.798  23.155  0.00  0.00    +0.145 HD
ENDBRANCH  33  34
ENDBRANCH  32  33
ENDBRANCH   1  32
TORSDOF 17
ENDMDL
MODEL 10
REMARK VINA RESULT:      -6.2      2.810      6.817
REMARK  Name = LQSS-mmff94.pdb
REMARK  19 active torsions:
REMARK  status: ('A' for Active; 'I' for Inactive)
REMARK    1  A    between atoms: _1  and  _2
REMARK    2  A    between atoms: _2  and  _3
REMARK    3  A    between atoms: _2  and  _5
REMARK    4  A    between atoms: _5  and  _6
REMARK    5  A    between atoms: _6  and  _7
REMARK    6  A    between atoms: _6  and  _8
REMARK    7  A    between atoms: _20  and  _21
REMARK    8  A    between atoms: _21  and  _22
REMARK    9  A    between atoms: _21  and  _24
REMARK   10  A    between atoms: _24  and  _25
REMARK   11  A    between atoms: _25  and  _26
REMARK   12  A    between atoms: _37  and  _38
REMARK   13  A    between atoms: _38  and  _39
REMARK   14  A    between atoms: _38  and  _41
REMARK   15  A    between atoms: _41  and  _42
REMARK   16  A    between atoms: _48  and  _49
REMARK   17  A    between atoms: _49  and  _50
REMARK   18  A    between atoms: _49  and  _52
REMARK   19  A    between atoms: _52  and  _53
REMARK                            x       y       z     vdW  Elec       q    Type
REMARK                         _______ _______ _______ _____ _____    ______ ____
ROOT
ATOM      1  CA  GLN A   2       9.933  -1.790  23.890  0.00  0.00    +0.159 C 
ENDROOT
BRANCH   1   3
ATOM      2  C   LEU A   1       8.759  -3.752  24.868  0.00  0.00    +0.230 C 
ATOM      3  N   GLN A   2       8.779  -2.421  24.530  0.00  0.00    -0.303 N 
ATOM      4  H   GLN A   2       7.961  -1.837  24.684  0.00  0.00    +0.149 HD
ATOM      5  O   LEU A   1       9.718  -4.497  24.670  0.00  0.00    -0.274 OA
BRANCH   2   6
ATOM      6  CA  LEU A   1       7.429  -4.242  25.489  0.00  0.00    +0.138 C 
BRANCH   6   7
ATOM      7  N   LEU A   1       6.530  -3.089  25.688  0.00  0.00    -0.320 NA
ATOM      8  H1  LEU A   1       6.637  -2.463  24.887  0.00  0.00    +0.119 HD
ATOM      9  H2  LEU A   1       5.568  -3.429  25.591  0.00  0.00    +0.119 HD
ENDBRANCH   6   7
BRANCH   6  10
ATOM     10  CB  LEU A   1       6.787  -5.305  24.584  0.00  0.00    +0.031 C 
BRANCH  10  11
ATOM     11  CG  LEU A   1       6.546  -4.872  23.122  0.00  0.00    -0.015 C 
ATOM     12  CD2 LEU A   1       7.197  -5.880  22.171  0.00  0.00    +0.007 C 
ATOM     13  CD1 LEU A   1       5.059  -4.736  22.791  0.00  0.00    +0.007 C 
ENDBRANCH  10  11
ENDBRANCH   6  10
ENDBRANCH   2   6
ENDBRANCH   1   3
BRANCH   1  14
ATOM     14  C   GLN A   2      10.063  -0.388  24.516  0.00  0.00    +0.234 C 
ATOM     15  O   GLN A   2      10.003  -0.204  25.732  0.00  0.00    -0.274 OA
ATOM     16  N   SER A   3      10.218   0.643  23.626  0.00  0.00    -0.301 N 
ATOM     17  H   SER A   3      10.206   0.480  22.621  0.00  0.00    +0.150 HD
BRANCH  16  18
ATOM     18  CA  SER A   3      10.189   2.049  24.042  0.00  0.00    +0.184 C 
BRANCH  18  19
ATOM     19  C   SER A   3       8.742   2.364  24.463  0.00  0.00    +0.236 C 
ATOM     20  N   SER A   4       7.756   1.939  23.609  0.00  0.00    -0.302 N 
ATOM     21  H   SER A   4       7.966   1.250  22.889  0.00  0.00    +0.150 HD
ATOM     22  O   SER A   3       8.491   3.012  25.481  0.00  0.00    -0.274 OA
BRANCH  20  23
ATOM     23  CA  SER A   4       6.339   2.053  23.963  0.00  0.00    +0.161 C 
BRANCH  23  24
ATOM     24  C   SER A   4       5.822   0.654  24.261  0.00  0.00    +0.247 C 
ATOM     25  O   SER A   4       6.559  -0.275  24.593  0.00  0.00    -0.299 OA
ENDBRANCH  23  24
BRANCH  23  26
ATOM     26  CB  SER A   4       5.494   2.688  22.854  0.00  0.00    +0.185 C 
BRANCH  26  27
ATOM     27  OG  SER A   4       5.788   2.099  21.588  0.00  0.00    -0.393 OA
ATOM     28  H   SER A   4       6.315   1.300  21.771  0.00  0.00    +0.209 HD
ENDBRANCH  26  27
ENDBRANCH  23  26
ENDBRANCH  20  23
ENDBRANCH  18  19
BRANCH  18  29
ATOM     29  CB  SER A   3      10.685   2.982  22.933  0.00  0.00    +0.187 C 
BRANCH  29  30
ATOM     30  OG  SER A   3      10.375   2.466  21.639  0.00  0.00    -0.393 OA
ATOM     31  H   SER A   3       9.724   3.073  21.244  0.00  0.00    +0.209 HD
ENDBRANCH  29  30
ENDBRANCH  18  29
ENDBRANCH  16  18
ENDBRANCH   1  14
BRANCH   1  32
ATOM     32  CB  GLN A   2       9.722  -1.718  22.369  0.00  0.00    +0.041 C 
BRANCH  32  33
ATOM     33  CG  GLN A   2       8.264  -1.856  21.937  0.00  0.00    +0.098 C 
BRANCH  33  34
ATOM     34  CD  GLN A   2       7.698  -0.635  21.240  0.00  0.00    +0.211 C 
ATOM     35  OE1 GLN A   2       8.319   0.420  21.157  0.00  0.00    -0.276 OA
ATOM     36  NE2 GLN A   2       6.417  -0.713  20.789  0.00  0.00    -0.329 N 
ATOM     37 HE21 GLN A   2       5.921  -1.583  20.664  0.00  0.00    +0.145 HD
ATOM     38 HE22 GLN A   2       6.068   0.098  20.292  0.00  0.00    +0.145 HD
ENDBRANCH  33  34
ENDBRANCH  32  33
ENDBRANCH   1  32
TORSDOF 17
ENDMDL
MODEL 11
REMARK VINA RESULT:      -6.2      1.568      2.039
REMARK  Name = LQSS-mmff94.pdb
REMARK  19 active torsions:
REMARK  status: ('A' for Active; 'I' for Inactive)
REMARK    1  A    between atoms: _1  and  _2
REMARK    2  A    between atoms: _2  and  _3
REMARK    3  A    between atoms: _2  and  _5
REMARK    4  A    between atoms: _5  and  _6
REMARK    5  A    between atoms: _6  and  _7
REMARK    6  A    between atoms: _6  and  _8
REMARK    7  A    between atoms: _20  and  _21
REMARK    8  A    between atoms: _21  and  _22
REMARK    9  A    between atoms: _21  and  _24
REMARK   10  A    between atoms: _24  and  _25
REMARK   11  A    between atoms: _25  and  _26
REMARK   12  A    between atoms: _37  and  _38
REMARK   13  A    between atoms: _38  and  _39
REMARK   14  A    between atoms: _38  and  _41
REMARK   15  A    between atoms: _41  and  _42
REMARK   16  A    between atoms: _48  and  _49
REMARK   17  A    between atoms: _49  and  _50
REMARK   18  A    between atoms: _49  and  _52
REMARK   19  A    between atoms: _52  and  _53
REMARK                            x       y       z     vdW  Elec       q    Type
REMARK                         _______ _______ _______ _____ _____    ______ ____
ROOT
ATOM      1  CA  GLN A   2       7.115  -0.799  21.428  0.00  0.00    +0.159 C 
ENDROOT
BRANCH   1   3
ATOM      2  C   LEU A   1       8.512  -0.048  23.344  0.00  0.00    +0.230 C 
ATOM      3  N   GLN A   2       8.192  -0.992  22.399  0.00  0.00    -0.303 N 
ATOM      4  H   GLN A   2       8.732  -1.850  22.324  0.00  0.00    +0.149 HD
ATOM      5  O   LEU A   1       7.900   1.015  23.448  0.00  0.00    -0.274 OA
BRANCH   2   6
ATOM      6  CA  LEU A   1       9.713  -0.416  24.247  0.00  0.00    +0.138 C 
BRANCH   6   7
ATOM      7  N   LEU A   1      10.769   0.604  24.092  0.00  0.00    -0.320 NA
ATOM      8  H1  LEU A   1      10.388   1.371  23.534  0.00  0.00    +0.119 HD
ATOM      9  H2  LEU A   1      10.918   1.034  25.010  0.00  0.00    +0.119 HD
ENDBRANCH   6   7
BRANCH   6  10
ATOM     10  CB  LEU A   1       9.255  -0.531  25.710  0.00  0.00    +0.031 C 
BRANCH  10  11
ATOM     11  CG  LEU A   1       8.551  -1.852  26.082  0.00  0.00    -0.015 C 
ATOM     12  CD2 LEU A   1       7.033  -1.667  26.011  0.00  0.00    +0.007 C 
ATOM     13  CD1 LEU A   1       8.973  -3.012  25.179  0.00  0.00    +0.007 C 
ENDBRANCH  10  11
ENDBRANCH   6  10
ENDBRANCH   2   6
ENDBRANCH   1   3
BRANCH   1  14
ATOM     14  C   GLN A   2       6.411  -2.163  21.286  0.00  0.00    +0.234 C 
ATOM     15  O   GLN A   2       5.560  -2.375  20.424  0.00  0.00    -0.274 OA
ATOM     16  N   SER A   3       6.775  -3.112  22.205  0.00  0.00    -0.301 N 
ATOM     17  H   SER A   3       7.438  -2.901  22.949  0.00  0.00    +0.150 HD
BRANCH  16  18
ATOM     18  CA  SER A   3       6.085  -4.401  22.316  0.00  0.00    +0.184 C 
BRANCH  18  19
ATOM     19  C   SER A   3       5.416  -4.436  23.702  0.00  0.00    +0.236 C 
ATOM     20  N   SER A   4       5.788  -5.466  24.528  0.00  0.00    -0.302 N 
ATOM     21  H   SER A   4       6.627  -6.006  24.325  0.00  0.00    +0.150 HD
ATOM     22  O   SER A   3       4.553  -3.617  24.024  0.00  0.00    -0.274 OA
BRANCH  20  23
ATOM     23  CA  SER A   4       5.331  -5.532  25.919  0.00  0.00    +0.161 C 
BRANCH  23  24
ATOM     24  C   SER A   4       6.531  -5.264  26.814  0.00  0.00    +0.247 C 
ATOM     25  O   SER A   4       7.572  -5.918  26.751  0.00  0.00    -0.299 OA
ENDBRANCH  23  24
BRANCH  23  26
ATOM     26  CB  SER A   4       4.709  -6.883  26.282  0.00  0.00    +0.185 C 
BRANCH  26  27
ATOM     27  OG  SER A   4       5.139  -7.312  27.574  0.00  0.00    -0.393 OA
ATOM     28  H   SER A   4       6.095  -7.488  27.501  0.00  0.00    +0.209 HD
ENDBRANCH  26  27
ENDBRANCH  23  26
ENDBRANCH  20  23
ENDBRANCH  18  19
BRANCH  18  29
ATOM     29  CB  SER A   3       7.041  -5.580  22.104  0.00  0.00    +0.187 C 
BRANCH  29  30
ATOM     30  OG  SER A   3       6.331  -6.810  21.967  0.00  0.00    -0.393 OA
ATOM     31  H   SER A   3       6.079  -6.884  21.029  0.00  0.00    +0.209 HD
ENDBRANCH  29  30
ENDBRANCH  18  29
ENDBRANCH  16  18
ENDBRANCH   1  14
BRANCH   1  32
ATOM     32  CB  GLN A   2       7.690  -0.311  20.089  0.00  0.00    +0.041 C 
BRANCH  32  33
ATOM     33  CG  GLN A   2       6.919   0.855  19.471  0.00  0.00    +0.098 C 
BRANCH  33  34
ATOM     34  CD  GLN A   2       6.298   0.551  18.123  0.00  0.00    +0.211 C 
ATOM     35  OE1 GLN A   2       6.335   1.347  17.190  0.00  0.00    -0.276 OA
ATOM     36  NE2 GLN A   2       5.596  -0.608  18.007  0.00  0.00    -0.329 N 
ATOM     37 HE21 GLN A   2       5.673  -1.375  18.659  0.00  0.00    +0.145 HD
ATOM     38 HE22 GLN A   2       5.220  -0.813  17.090  0.00  0.00    +0.145 HD
ENDBRANCH  33  34
ENDBRANCH  32  33
ENDBRANCH   1  32
TORSDOF 17
ENDMDL
MODEL 12
REMARK VINA RESULT:      -6.2      2.392      7.824
REMARK  Name = LQSS-mmff94.pdb
REMARK  19 active torsions:
REMARK  status: ('A' for Active; 'I' for Inactive)
REMARK    1  A    between atoms: _1  and  _2
REMARK    2  A    between atoms: _2  and  _3
REMARK    3  A    between atoms: _2  and  _5
REMARK    4  A    between atoms: _5  and  _6
REMARK    5  A    between atoms: _6  and  _7
REMARK    6  A    between atoms: _6  and  _8
REMARK    7  A    between atoms: _20  and  _21
REMARK    8  A    between atoms: _21  and  _22
REMARK    9  A    between atoms: _21  and  _24
REMARK   10  A    between atoms: _24  and  _25
REMARK   11  A    between atoms: _25  and  _26
REMARK   12  A    between atoms: _37  and  _38
REMARK   13  A    between atoms: _38  and  _39
REMARK   14  A    between atoms: _38  and  _41
REMARK   15  A    between atoms: _41  and  _42
REMARK   16  A    between atoms: _48  and  _49
REMARK   17  A    between atoms: _49  and  _50
REMARK   18  A    between atoms: _49  and  _52
REMARK   19  A    between atoms: _52  and  _53
REMARK                            x       y       z     vdW  Elec       q    Type
REMARK                         _______ _______ _______ _____ _____    ______ ____
ROOT
ATOM      1  CA  GLN A   2       6.985  -1.734  25.470  0.00  0.00    +0.159 C 
ENDROOT
BRANCH   1   3
ATOM      2  C   LEU A   1       5.082  -3.088  24.617  0.00  0.00    +0.230 C 
ATOM      3  N   GLN A   2       6.428  -2.817  24.661  0.00  0.00    -0.303 N 
ATOM      4  H   GLN A   2       7.088  -3.398  24.152  0.00  0.00    +0.149 HD
ATOM      5  O   LEU A   1       4.255  -2.425  25.242  0.00  0.00    -0.274 OA
BRANCH   2   6
ATOM      6  CA  LEU A   1       4.695  -4.305  23.744  0.00  0.00    +0.138 C 
BRANCH   6   7
ATOM      7  N   LEU A   1       4.873  -3.959  22.320  0.00  0.00    -0.320 NA
ATOM      8  H1  LEU A   1       4.228  -3.198  22.096  0.00  0.00    +0.119 HD
ATOM      9  H2  LEU A   1       5.794  -3.520  22.224  0.00  0.00    +0.119 HD
ENDBRANCH   6   7
BRANCH   6  10
ATOM     10  CB  LEU A   1       5.546  -5.524  24.134  0.00  0.00    +0.031 C 
BRANCH  10  11
ATOM     11  CG  LEU A   1       4.767  -6.705  24.751  0.00  0.00    -0.015 C 
ATOM     12  CD2 LEU A   1       4.883  -6.660  26.277  0.00  0.00    +0.007 C 
ATOM     13  CD1 LEU A   1       3.292  -6.707  24.345  0.00  0.00    +0.007 C 
ENDBRANCH  10  11
ENDBRANCH   6  10
ENDBRANCH   2   6
ENDBRANCH   1   3
BRANCH   1  14
ATOM     14  C   GLN A   2       7.026  -0.490  24.560  0.00  0.00    +0.234 C 
ATOM     15  O   GLN A   2       6.084   0.298  24.483  0.00  0.00    -0.274 OA
ATOM     16  N   SER A   3       8.170  -0.340  23.819  0.00  0.00    -0.301 N 
ATOM     17  H   SER A   3       8.915  -1.033  23.851  0.00  0.00    +0.150 HD
BRANCH  16  18
ATOM     18  CA  SER A   3       8.303   0.690  22.784  0.00  0.00    +0.184 C 
BRANCH  18  19
ATOM     19  C   SER A   3       8.109  -0.009  21.426  0.00  0.00    +0.236 C 
ATOM     20  N   SER A   4       6.826  -0.042  20.941  0.00  0.00    -0.302 N 
ATOM     21  H   SER A   4       6.115   0.573  21.333  0.00  0.00    +0.150 HD
ATOM     22  O   SER A   3       9.044  -0.558  20.841  0.00  0.00    -0.274 OA
BRANCH  20  23
ATOM     23  CA  SER A   4       6.531  -0.553  19.599  0.00  0.00    +0.161 C 
BRANCH  23  24
ATOM     24  C   SER A   4       5.853   0.563  18.818  0.00  0.00    +0.247 C 
ATOM     25  O   SER A   4       5.936   0.669  17.594  0.00  0.00    -0.299 OA
ENDBRANCH  23  24
BRANCH  23  26
ATOM     26  CB  SER A   4       5.631  -1.791  19.614  0.00  0.00    +0.185 C 
BRANCH  26  27
ATOM     27  OG  SER A   4       5.511  -2.351  18.307  0.00  0.00    -0.393 OA
ATOM     28  H   SER A   4       6.404  -2.644  18.049  0.00  0.00    +0.209 HD
ENDBRANCH  26  27
ENDBRANCH  23  26
ENDBRANCH  20  23
ENDBRANCH  18  19
BRANCH  18  29
ATOM     29  CB  SER A   3       9.649   1.417  22.874  0.00  0.00    +0.187 C 
BRANCH  29  30
ATOM     30  OG  SER A   3       9.987   2.045  21.638  0.00  0.00    -0.393 OA
ATOM     31  H   SER A   3      10.957   2.011  21.563  0.00  0.00    +0.209 HD
ENDBRANCH  29  30
ENDBRANCH  18  29
ENDBRANCH  16  18
ENDBRANCH   1  14
BRANCH   1  32
ATOM     32  CB  GLN A   2       8.385  -2.116  25.977  0.00  0.00    +0.041 C 
BRANCH  32  33
ATOM     33  CG  GLN A   2       8.531  -3.591  26.346  0.00  0.00    +0.098 C 
BRANCH  33  34
ATOM     34  CD  GLN A   2       9.293  -4.419  25.332  0.00  0.00    +0.211 C 
ATOM     35  OE1 GLN A   2       9.135  -4.284  24.123  0.00  0.00    -0.276 OA
ATOM     36  NE2 GLN A   2      10.100  -5.403  25.811  0.00  0.00    -0.329 N 
ATOM     37 HE21 GLN A   2      10.411  -5.453  26.770  0.00  0.00    +0.145 HD
ATOM     38 HE22 GLN A   2      10.631  -5.922  25.122  0.00  0.00    +0.145 HD
ENDBRANCH  33  34
ENDBRANCH  32  33
ENDBRANCH   1  32
TORSDOF 17
ENDMDL
MODEL 13
REMARK VINA RESULT:      -6.2      2.501      4.319
REMARK  Name = LQSS-mmff94.pdb
REMARK  19 active torsions:
REMARK  status: ('A' for Active; 'I' for Inactive)
REMARK    1  A    between atoms: _1  and  _2
REMARK    2  A    between atoms: _2  and  _3
REMARK    3  A    between atoms: _2  and  _5
REMARK    4  A    between atoms: _5  and  _6
REMARK    5  A    between atoms: _6  and  _7
REMARK    6  A    between atoms: _6  and  _8
REMARK    7  A    between atoms: _20  and  _21
REMARK    8  A    between atoms: _21  and  _22
REMARK    9  A    between atoms: _21  and  _24
REMARK   10  A    between atoms: _24  and  _25
REMARK   11  A    between atoms: _25  and  _26
REMARK   12  A    between atoms: _37  and  _38
REMARK   13  A    between atoms: _38  and  _39
REMARK   14  A    between atoms: _38  and  _41
REMARK   15  A    between atoms: _41  and  _42
REMARK   16  A    between atoms: _48  and  _49
REMARK   17  A    between atoms: _49  and  _50
REMARK   18  A    between atoms: _49  and  _52
REMARK   19  A    between atoms: _52  and  _53
REMARK                            x       y       z     vdW  Elec       q    Type
REMARK                         _______ _______ _______ _____ _____    ______ ____
ROOT
ATOM      1  CA  GLN A   2       8.060  -1.113  21.687  0.00  0.00    +0.159 C 
ENDROOT
BRANCH   1   3
ATOM      2  C   LEU A   1       6.882   0.956  20.969  0.00  0.00    +0.230 C 
ATOM      3  N   GLN A   2       7.517   0.221  21.940  0.00  0.00    -0.303 N 
ATOM      4  H   GLN A   2       7.662   0.608  22.869  0.00  0.00    +0.149 HD
ATOM      5  O   LEU A   1       6.713   0.532  19.827  0.00  0.00    -0.274 OA
BRANCH   2   6
ATOM      6  CA  LEU A   1       6.423   2.363  21.419  0.00  0.00    +0.138 C 
BRANCH   6   7
ATOM      7  N   LEU A   1       4.993   2.535  21.094  0.00  0.00    -0.320 NA
ATOM      8  H1  LEU A   1       4.680   1.703  20.591  0.00  0.00    +0.119 HD
ATOM      9  H2  LEU A   1       4.470   2.486  21.974  0.00  0.00    +0.119 HD
ENDBRANCH   6   7
BRANCH   6  10
ATOM     10  CB  LEU A   1       6.681   2.544  22.923  0.00  0.00    +0.031 C 
BRANCH  10  11
ATOM     11  CG  LEU A   1       7.446   3.826  23.315  0.00  0.00    -0.015 C 
ATOM     12  CD2 LEU A   1       8.930   3.502  23.513  0.00  0.00    +0.007 C 
ATOM     13  CD1 LEU A   1       7.295   4.936  22.274  0.00  0.00    +0.007 C 
ENDBRANCH  10  11
ENDBRANCH   6  10
ENDBRANCH   2   6
ENDBRANCH   1   3
BRANCH   1  14
ATOM     14  C   GLN A   2       7.121  -2.106  22.399  0.00  0.00    +0.234 C 
ATOM     15  O   GLN A   2       6.432  -1.780  23.366  0.00  0.00    -0.274 OA
ATOM     16  N   SER A   3       7.130  -3.384  21.904  0.00  0.00    -0.301 N 
ATOM     17  H   SER A   3       7.750  -3.652  21.141  0.00  0.00    +0.150 HD
BRANCH  16  18
ATOM     18  CA  SER A   3       6.426  -4.487  22.567  0.00  0.00    +0.184 C 
BRANCH  18  19
ATOM     19  C   SER A   3       7.391  -5.072  23.614  0.00  0.00    +0.236 C 
ATOM     20  N   SER A   4       7.125  -4.759  24.923  0.00  0.00    -0.302 N 
ATOM     21  H   SER A   4       6.215  -4.384  25.184  0.00  0.00    +0.150 HD
ATOM     22  O   SER A   3       8.378  -5.733  23.286  0.00  0.00    -0.274 OA
BRANCH  20  23
ATOM     23  CA  SER A   4       7.883  -5.365  26.021  0.00  0.00    +0.161 C 
BRANCH  23  24
ATOM     24  C   SER A   4       7.001  -5.345  27.260  0.00  0.00    +0.247 C 
ATOM     25  O   SER A   4       7.159  -6.115  28.207  0.00  0.00    -0.299 OA
ENDBRANCH  23  24
BRANCH  23  26
ATOM     26  CB  SER A   4       9.199  -4.638  26.314  0.00  0.00    +0.185 C 
BRANCH  26  27
ATOM     27  OG  SER A   4      10.319  -5.431  25.923  0.00  0.00    -0.393 OA
ATOM     28  H   SER A   4      10.948  -5.405  26.667  0.00  0.00    +0.209 HD
ENDBRANCH  26  27
ENDBRANCH  23  26
ENDBRANCH  20  23
ENDBRANCH  18  19
BRANCH  18  29
ATOM     29  CB  SER A   3       5.949  -5.543  21.564  0.00  0.00    +0.187 C 
BRANCH  29  30
ATOM     30  OG  SER A   3       5.986  -6.853  22.129  0.00  0.00    -0.393 OA
ATOM     31  H   SER A   3       5.239  -6.910  22.752  0.00  0.00    +0.209 HD
ENDBRANCH  29  30
ENDBRANCH  18  29
ENDBRANCH  16  18
ENDBRANCH   1  14
BRANCH   1  32
ATOM     32  CB  GLN A   2       9.500  -1.209  22.216  0.00  0.00    +0.041 C 
BRANCH  32  33
ATOM     33  CG  GLN A   2       9.924  -0.024  23.081  0.00  0.00    +0.098 C 
BRANCH  33  34
ATOM     34  CD  GLN A   2       9.895  -0.293  24.571  0.00  0.00    +0.211 C 
ATOM     35  OE1 GLN A   2       9.280  -1.238  25.055  0.00  0.00    -0.276 OA
ATOM     36  NE2 GLN A   2      10.497   0.618  25.381  0.00  0.00    -0.329 N 
ATOM     37 HE21 GLN A   2      11.160   1.305  25.053  0.00  0.00    +0.145 HD
ATOM     38 HE22 GLN A   2      10.502   0.404  26.371  0.00  0.00    +0.145 HD
ENDBRANCH  33  34
ENDBRANCH  32  33
ENDBRANCH   1  32
TORSDOF 17
ENDMDL
MODEL 14
REMARK VINA RESULT:      -6.2      2.230      4.818
REMARK  Name = LQSS-mmff94.pdb
REMARK  19 active torsions:
REMARK  status: ('A' for Active; 'I' for Inactive)
REMARK    1  A    between atoms: _1  and  _2
REMARK    2  A    between atoms: _2  and  _3
REMARK    3  A    between atoms: _2  and  _5
REMARK    4  A    between atoms: _5  and  _6
REMARK    5  A    between atoms: _6  and  _7
REMARK    6  A    between atoms: _6  and  _8
REMARK    7  A    between atoms: _20  and  _21
REMARK    8  A    between atoms: _21  and  _22
REMARK    9  A    between atoms: _21  and  _24
REMARK   10  A    between atoms: _24  and  _25
REMARK   11  A    between atoms: _25  and  _26
REMARK   12  A    between atoms: _37  and  _38
REMARK   13  A    between atoms: _38  and  _39
REMARK   14  A    between atoms: _38  and  _41
REMARK   15  A    between atoms: _41  and  _42
REMARK   16  A    between atoms: _48  and  _49
REMARK   17  A    between atoms: _49  and  _50
REMARK   18  A    between atoms: _49  and  _52
REMARK   19  A    between atoms: _52  and  _53
REMARK                            x       y       z     vdW  Elec       q    Type
REMARK                         _______ _______ _______ _____ _____    ______ ____
ROOT
ATOM      1  CA  GLN A   2       7.571  -2.943  22.684  0.00  0.00    +0.159 C 
ENDROOT
BRANCH   1   3
ATOM      2  C   LEU A   1       8.476  -0.899  21.595  0.00  0.00    +0.230 C 
ATOM      3  N   GLN A   2       7.413  -1.620  22.082  0.00  0.00    -0.303 N 
ATOM      4  H   GLN A   2       6.475  -1.228  22.071  0.00  0.00    +0.149 HD
ATOM      5  O   LEU A   1       9.629  -1.328  21.617  0.00  0.00    -0.274 OA
BRANCH   2   6
ATOM      6  CA  LEU A   1       8.112   0.500  21.044  0.00  0.00    +0.138 C 
BRANCH   6   7
ATOM      7  N   LEU A   1       9.267   1.404  21.206  0.00  0.00    -0.320 NA
ATOM      8  H1  LEU A   1       9.629   1.625  20.276  0.00  0.00    +0.119 HD
ATOM      9  H2  LEU A   1       8.909   2.305  21.537  0.00  0.00    +0.119 HD
ENDBRANCH   6   7
BRANCH   6  10
ATOM     10  CB  LEU A   1       7.689   0.389  19.570  0.00  0.00    +0.031 C 
BRANCH  10  11
ATOM     11  CG  LEU A   1       6.189   0.621  19.291  0.00  0.00    -0.015 C 
ATOM     12  CD2 LEU A   1       5.655   1.718  20.217  0.00  0.00    +0.007 C 
ATOM     13  CD1 LEU A   1       5.918   0.998  17.834  0.00  0.00    +0.007 C 
ENDBRANCH  10  11
ENDBRANCH   6  10
ENDBRANCH   2   6
ENDBRANCH   1   3
BRANCH   1  14
ATOM     14  C   GLN A   2       6.202  -3.641  22.562  0.00  0.00    +0.234 C 
ATOM     15  O   GLN A   2       5.448  -3.445  21.610  0.00  0.00    -0.274 OA
ATOM     16  N   SER A   3       5.868  -4.468  23.603  0.00  0.00    -0.301 N 
ATOM     17  H   SER A   3       6.478  -4.573  24.412  0.00  0.00    +0.150 HD
BRANCH  16  18
ATOM     18  CA  SER A   3       4.539  -5.076  23.726  0.00  0.00    +0.184 C 
BRANCH  18  19
ATOM     19  C   SER A   3       4.223  -5.164  25.230  0.00  0.00    +0.236 C 
ATOM     20  N   SER A   4       5.293  -5.376  26.063  0.00  0.00    -0.302 N 
ATOM     21  H   SER A   4       6.241  -5.228  25.723  0.00  0.00    +0.150 HD
ATOM     22  O   SER A   3       3.066  -5.105  25.653  0.00  0.00    -0.274 OA
BRANCH  20  23
ATOM     23  CA  SER A   4       5.144  -5.340  27.520  0.00  0.00    +0.161 C 
BRANCH  23  24
ATOM     24  C   SER A   4       5.361  -3.903  27.972  0.00  0.00    +0.247 C 
ATOM     25  O   SER A   4       6.167  -3.146  27.431  0.00  0.00    -0.299 OA
ENDBRANCH  23  24
BRANCH  23  26
ATOM     26  CB  SER A   4       6.128  -6.262  28.246  0.00  0.00    +0.185 C 
BRANCH  26  27
ATOM     27  OG  SER A   4       7.474  -5.966  27.874  0.00  0.00    -0.393 OA
ATOM     28  H   SER A   4       7.704  -6.586  27.158  0.00  0.00    +0.209 HD
ENDBRANCH  26  27
ENDBRANCH  23  26
ENDBRANCH  20  23
ENDBRANCH  18  19
BRANCH  18  29
ATOM     29  CB  SER A   3       4.472  -6.443  23.039  0.00  0.00    +0.187 C 
BRANCH  29  30
ATOM     30  OG  SER A   3       4.291  -7.495  23.986  0.00  0.00    -0.393 OA
ATOM     31  H   SER A   3       3.503  -7.993  23.704  0.00  0.00    +0.209 HD
ENDBRANCH  29  30
ENDBRANCH  18  29
ENDBRANCH  16  18
ENDBRANCH   1  14
BRANCH   1  32
ATOM     32  CB  GLN A   2       8.016  -2.810  24.150  0.00  0.00    +0.041 C 
BRANCH  32  33
ATOM     33  CG  GLN A   2       9.310  -3.553  24.476  0.00  0.00    +0.098 C 
BRANCH  33  34
ATOM     34  CD  GLN A   2       9.109  -4.894  25.153  0.00  0.00    +0.211 C 
ATOM     35  OE1 GLN A   2       8.020  -5.458  25.181  0.00  0.00    -0.276 OA
ATOM     36  NE2 GLN A   2      10.168  -5.415  25.828  0.00  0.00    -0.329 N 
ATOM     37 HE21 GLN A   2      11.120  -5.104  25.701  0.00  0.00    +0.145 HD
ATOM     38 HE22 GLN A   2      10.029  -6.329  26.243  0.00  0.00    +0.145 HD
ENDBRANCH  33  34
ENDBRANCH  32  33
ENDBRANCH   1  32
TORSDOF 17
ENDMDL
MODEL 15
REMARK VINA RESULT:      -6.2      1.604      2.033
REMARK  Name = LQSS-mmff94.pdb
REMARK  19 active torsions:
REMARK  status: ('A' for Active; 'I' for Inactive)
REMARK    1  A    between atoms: _1  and  _2
REMARK    2  A    between atoms: _2  and  _3
REMARK    3  A    between atoms: _2  and  _5
REMARK    4  A    between atoms: _5  and  _6
REMARK    5  A    between atoms: _6  and  _7
REMARK    6  A    between atoms: _6  and  _8
REMARK    7  A    between atoms: _20  and  _21
REMARK    8  A    between atoms: _21  and  _22
REMARK    9  A    between atoms: _21  and  _24
REMARK   10  A    between atoms: _24  and  _25
REMARK   11  A    between atoms: _25  and  _26
REMARK   12  A    between atoms: _37  and  _38
REMARK   13  A    between atoms: _38  and  _39
REMARK   14  A    between atoms: _38  and  _41
REMARK   15  A    between atoms: _41  and  _42
REMARK   16  A    between atoms: _48  and  _49
REMARK   17  A    between atoms: _49  and  _50
REMARK   18  A    between atoms: _49  and  _52
REMARK   19  A    between atoms: _52  and  _53
REMARK                            x       y       z     vdW  Elec       q    Type
REMARK                         _______ _______ _______ _____ _____    ______ ____
ROOT
ATOM      1  CA  GLN A   2       6.820  -0.869  21.782  0.00  0.00    +0.159 C 
ENDROOT
BRANCH   1   3
ATOM      2  C   LEU A   1       7.401   0.296  23.901  0.00  0.00    +0.230 C 
ATOM      3  N   GLN A   2       7.688  -0.640  22.937  0.00  0.00    -0.303 N 
ATOM      4  H   GLN A   2       8.547  -1.181  22.982  0.00  0.00    +0.149 HD
ATOM      5  O   LEU A   1       6.386   0.990  23.866  0.00  0.00    -0.274 OA
BRANCH   2   6
ATOM      6  CA  LEU A   1       8.466   0.424  25.016  0.00  0.00    +0.138 C 
BRANCH   6   7
ATOM      7  N   LEU A   1       8.783  -0.918  25.544  0.00  0.00    -0.320 NA
ATOM      8  H1  LEU A   1       8.982  -1.531  24.750  0.00  0.00    +0.119 HD
ATOM      9  H2  LEU A   1       9.686  -0.854  26.023  0.00  0.00    +0.119 HD
ENDBRANCH   6   7
BRANCH   6  10
ATOM     10  CB  LEU A   1       9.721   1.120  24.466  0.00  0.00    +0.031 C 
BRANCH  10  11
ATOM     11  CG  LEU A   1       9.466   2.178  23.373  0.00  0.00    -0.015 C 
ATOM     12  CD2 LEU A   1       9.971   3.544  23.847  0.00  0.00    +0.007 C 
ATOM     13  CD1 LEU A   1      10.130   1.816  22.043  0.00  0.00    +0.007 C 
ENDBRANCH  10  11
ENDBRANCH   6  10
ENDBRANCH   2   6
ENDBRANCH   1   3
BRANCH   1  14
ATOM     14  C   GLN A   2       6.425  -2.358  21.826  0.00  0.00    +0.234 C 
ATOM     15  O   GLN A   2       5.714  -2.874  20.965  0.00  0.00    -0.274 OA
ATOM     16  N   SER A   3       6.892  -3.060  22.907  0.00  0.00    -0.301 N 
ATOM     17  H   SER A   3       7.430  -2.603  23.641  0.00  0.00    +0.150 HD
BRANCH  16  18
ATOM     18  CA  SER A   3       6.473  -4.436  23.189  0.00  0.00    +0.184 C 
BRANCH  18  19
ATOM     19  C   SER A   3       5.846  -4.436  24.595  0.00  0.00    +0.236 C 
ATOM     20  N   SER A   4       6.087  -5.546  25.365  0.00  0.00    -0.302 N 
ATOM     21  H   SER A   4       6.832  -6.192  25.111  0.00  0.00    +0.150 HD
ATOM     22  O   SER A   3       5.121  -3.517  24.980  0.00  0.00    -0.274 OA
BRANCH  20  23
ATOM     23  CA  SER A   4       5.665  -5.607  26.767  0.00  0.00    +0.161 C 
BRANCH  23  24
ATOM     24  C   SER A   4       6.918  -5.588  27.630  0.00  0.00    +0.247 C 
ATOM     25  O   SER A   4       7.940  -4.978  27.313  0.00  0.00    -0.299 OA
ENDBRANCH  23  24
BRANCH  23  26
ATOM     26  CB  SER A   4       4.838  -6.855  27.090  0.00  0.00    +0.185 C 
BRANCH  26  27
ATOM     27  OG  SER A   4       5.372  -7.544  28.219  0.00  0.00    -0.393 OA
ATOM     28  H   SER A   4       6.333  -7.612  28.071  0.00  0.00    +0.209 HD
ENDBRANCH  26  27
ENDBRANCH  23  26
ENDBRANCH  20  23
ENDBRANCH  18  19
BRANCH  18  29
ATOM     29  CB  SER A   3       7.640  -5.422  23.075  0.00  0.00    +0.187 C 
BRANCH  29  30
ATOM     30  OG  SER A   3       8.688  -5.099  23.988  0.00  0.00    -0.393 OA
ATOM     31  H   SER A   3       8.457  -5.516  24.837  0.00  0.00    +0.209 HD
ENDBRANCH  29  30
ENDBRANCH  18  29
ENDBRANCH  16  18
ENDBRANCH   1  14
BRANCH   1  32
ATOM     32  CB  GLN A   2       7.561  -0.513  20.483  0.00  0.00    +0.041 C 
BRANCH  32  33
ATOM     33  CG  GLN A   2       6.932   0.641  19.706  0.00  0.00    +0.098 C 
BRANCH  33  34
ATOM     34  CD  GLN A   2       6.293   0.239  18.392  0.00  0.00    +0.211 C 
ATOM     35  OE1 GLN A   2       6.234   1.000  17.432  0.00  0.00    -0.276 OA
ATOM     36  NE2 GLN A   2       5.686  -0.977  18.341  0.00  0.00    -0.329 N 
ATOM     37 HE21 GLN A   2       5.847  -1.711  19.016  0.00  0.00    +0.145 HD
ATOM     38 HE22 GLN A   2       5.298  -1.246  17.445  0.00  0.00    +0.145 HD
ENDBRANCH  33  34
ENDBRANCH  32  33
ENDBRANCH   1  32
TORSDOF 17
ENDMDL
MODEL 16
REMARK VINA RESULT:      -6.1      2.272      5.079
REMARK  Name = LQSS-mmff94.pdb
REMARK  19 active torsions:
REMARK  status: ('A' for Active; 'I' for Inactive)
REMARK    1  A    between atoms: _1  and  _2
REMARK    2  A    between atoms: _2  and  _3
REMARK    3  A    between atoms: _2  and  _5
REMARK    4  A    between atoms: _5  and  _6
REMARK    5  A    between atoms: _6  and  _7
REMARK    6  A    between atoms: _6  and  _8
REMARK    7  A    between atoms: _20  and  _21
REMARK    8  A    between atoms: _21  and  _22
REMARK    9  A    between atoms: _21  and  _24
REMARK   10  A    between atoms: _24  and  _25
REMARK   11  A    between atoms: _25  and  _26
REMARK   12  A    between atoms: _37  and  _38
REMARK   13  A    between atoms: _38  and  _39
REMARK   14  A    between atoms: _38  and  _41
REMARK   15  A    between atoms: _41  and  _42
REMARK   16  A    between atoms: _48  and  _49
REMARK   17  A    between atoms: _49  and  _50
REMARK   18  A    between atoms: _49  and  _52
REMARK   19  A    between atoms: _52  and  _53
REMARK                            x       y       z     vdW  Elec       q    Type
REMARK                         _______ _______ _______ _____ _____    ______ ____
ROOT
ATOM      1  CA  GLN A   2       9.134  -0.687  24.522  0.00  0.00    +0.159 C 
ENDROOT
BRANCH   1   3
ATOM      2  C   LEU A   1       8.422  -1.003  22.161  0.00  0.00    +0.230 C 
ATOM      3  N   GLN A   2       8.115  -0.744  23.474  0.00  0.00    -0.303 N 
ATOM      4  H   GLN A   2       7.158  -0.544  23.751  0.00  0.00    +0.149 HD
ATOM      5  O   LEU A   1       9.573  -1.221  21.783  0.00  0.00    -0.274 OA
BRANCH   2   6
ATOM      6  CA  LEU A   1       7.214  -0.971  21.195  0.00  0.00    +0.138 C 
BRANCH   6   7
ATOM      7  N   LEU A   1       6.157  -1.865  21.709  0.00  0.00    -0.320 NA
ATOM      8  H1  LEU A   1       5.252  -1.452  21.474  0.00  0.00    +0.119 HD
ATOM      9  H2  LEU A   1       6.177  -2.720  21.145  0.00  0.00    +0.119 HD
ENDBRANCH   6   7
BRANCH   6  10
ATOM     10  CB  LEU A   1       6.703   0.470  21.041  0.00  0.00    +0.031 C 
BRANCH  10  11
ATOM     11  CG  LEU A   1       6.658   1.006  19.594  0.00  0.00    -0.015 C 
ATOM     12  CD2 LEU A   1       7.484   0.096  18.681  0.00  0.00    +0.007 C 
ATOM     13  CD1 LEU A   1       5.230   1.117  19.057  0.00  0.00    +0.007 C 
ENDBRANCH  10  11
ENDBRANCH   6  10
ENDBRANCH   2   6
ENDBRANCH   1   3
BRANCH   1  14
ATOM     14  C   GLN A   2       8.570  -1.479  25.718  0.00  0.00    +0.234 C 
ATOM     15  O   GLN A   2       8.948  -1.283  26.873  0.00  0.00    -0.274 OA
ATOM     16  N   SER A   3       7.643  -2.439  25.404  0.00  0.00    -0.301 N 
ATOM     17  H   SER A   3       7.385  -2.628  24.437  0.00  0.00    +0.150 HD
BRANCH  16  18
ATOM     18  CA  SER A   3       7.133  -3.391  26.395  0.00  0.00    +0.184 C 
BRANCH  18  19
ATOM     19  C   SER A   3       6.802  -4.692  25.641  0.00  0.00    +0.236 C 
ATOM     20  N   SER A   4       6.388  -4.549  24.341  0.00  0.00    -0.302 N 
ATOM     21  H   SER A   4       6.540  -3.670  23.851  0.00  0.00    +0.150 HD
ATOM     22  O   SER A   3       6.850  -5.792  26.196  0.00  0.00    -0.274 OA
BRANCH  20  23
ATOM     23  CA  SER A   4       6.178  -5.713  23.476  0.00  0.00    +0.161 C 
BRANCH  23  24
ATOM     24  C   SER A   4       7.264  -5.701  22.411  0.00  0.00    +0.247 C 
ATOM     25  O   SER A   4       7.022  -5.785  21.207  0.00  0.00    -0.299 OA
ENDBRANCH  23  24
BRANCH  23  26
ATOM     26  CB  SER A   4       4.801  -5.720  22.806  0.00  0.00    +0.185 C 
BRANCH  26  27
ATOM     27  OG  SER A   4       4.472  -4.426  22.301  0.00  0.00    -0.393 OA
ATOM     28  H   SER A   4       3.800  -4.058  22.904  0.00  0.00    +0.209 HD
ENDBRANCH  26  27
ENDBRANCH  23  26
ENDBRANCH  20  23
ENDBRANCH  18  19
BRANCH  18  29
ATOM     29  CB  SER A   3       5.922  -2.834  27.150  0.00  0.00    +0.187 C 
BRANCH  29  30
ATOM     30  OG  SER A   3       4.736  -3.567  26.847  0.00  0.00    -0.393 OA
ATOM     31  H   SER A   3       5.006  -4.492  26.709  0.00  0.00    +0.209 HD
ENDBRANCH  29  30
ENDBRANCH  18  29
ENDBRANCH  16  18
ENDBRANCH   1  14
BRANCH   1  32
ATOM     32  CB  GLN A   2       9.430   0.775  24.896  0.00  0.00    +0.041 C 
BRANCH  32  33
ATOM     33  CG  GLN A   2      10.479   1.442  24.008  0.00  0.00    +0.098 C 
BRANCH  33  34
ATOM     34  CD  GLN A   2       9.912   2.378  22.961  0.00  0.00    +0.211 C 
ATOM     35  OE1 GLN A   2       9.264   3.378  23.257  0.00  0.00    -0.276 OA
ATOM     36  NE2 GLN A   2      10.057   2.018  21.658  0.00  0.00    -0.329 N 
ATOM     37 HE21 GLN A   2      10.717   1.322  21.341  0.00  0.00    +0.145 HD
ATOM     38 HE22 GLN A   2       9.706   2.674  20.971  0.00  0.00    +0.145 HD
ENDBRANCH  33  34
ENDBRANCH  32  33
ENDBRANCH   1  32
TORSDOF 17
ENDMDL
MODEL 17
REMARK VINA RESULT:      -6.1      2.499      4.891
REMARK  Name = LQSS-mmff94.pdb
REMARK  19 active torsions:
REMARK  status: ('A' for Active; 'I' for Inactive)
REMARK    1  A    between atoms: _1  and  _2
REMARK    2  A    between atoms: _2  and  _3
REMARK    3  A    between atoms: _2  and  _5
REMARK    4  A    between atoms: _5  and  _6
REMARK    5  A    between atoms: _6  and  _7
REMARK    6  A    between atoms: _6  and  _8
REMARK    7  A    between atoms: _20  and  _21
REMARK    8  A    between atoms: _21  and  _22
REMARK    9  A    between atoms: _21  and  _24
REMARK   10  A    between atoms: _24  and  _25
REMARK   11  A    between atoms: _25  and  _26
REMARK   12  A    between atoms: _37  and  _38
REMARK   13  A    between atoms: _38  and  _39
REMARK   14  A    between atoms: _38  and  _41
REMARK   15  A    between atoms: _41  and  _42
REMARK   16  A    between atoms: _48  and  _49
REMARK   17  A    between atoms: _49  and  _50
REMARK   18  A    between atoms: _49  and  _52
REMARK   19  A    between atoms: _52  and  _53
REMARK                            x       y       z     vdW  Elec       q    Type
REMARK                         _______ _______ _______ _____ _____    ______ ____
ROOT
ATOM      1  CA  GLN A   2       9.805  -0.444  24.026  0.00  0.00    +0.159 C 
ENDROOT
BRANCH   1   3
ATOM      2  C   LEU A   1       9.218   1.031  22.112  0.00  0.00    +0.230 C 
ATOM      3  N   GLN A   2       8.924  -0.029  22.934  0.00  0.00    -0.303 N 
ATOM      4  H   GLN A   2       8.051  -0.539  22.828  0.00  0.00    +0.149 HD
ATOM      5  O   LEU A   1      10.251   1.690  22.229  0.00  0.00    -0.274 OA
BRANCH   2   6
ATOM      6  CA  LEU A   1       8.138   1.346  21.050  0.00  0.00    +0.138 C 
BRANCH   6   7
ATOM      7  N   LEU A   1       8.034   0.211  20.111  0.00  0.00    -0.320 NA
ATOM      8  H1  LEU A   1       8.981  -0.108  19.895  0.00  0.00    +0.119 HD
ATOM      9  H2  LEU A   1       7.633  -0.578  20.626  0.00  0.00    +0.119 HD
ENDBRANCH   6   7
BRANCH   6  10
ATOM     10  CB  LEU A   1       6.792   1.629  21.737  0.00  0.00    +0.031 C 
BRANCH  10  11
ATOM     11  CG  LEU A   1       6.804   2.776  22.768  0.00  0.00    -0.015 C 
ATOM     12  CD2 LEU A   1       7.226   4.080  22.086  0.00  0.00    +0.007 C 
ATOM     13  CD1 LEU A   1       5.446   2.965  23.446  0.00  0.00    +0.007 C 
ENDBRANCH  10  11
ENDBRANCH   6  10
ENDBRANCH   2   6
ENDBRANCH   1   3
BRANCH   1  14
ATOM     14  C   GLN A   2       9.985  -1.968  23.881  0.00  0.00    +0.234 C 
ATOM     15  O   GLN A   2      10.593  -2.470  22.936  0.00  0.00    -0.274 OA
ATOM     16  N   SER A   3       9.394  -2.727  24.858  0.00  0.00    -0.301 N 
ATOM     17  H   SER A   3       8.845  -2.298  25.600  0.00  0.00    +0.150 HD
BRANCH  16  18
ATOM     18  CA  SER A   3       9.327  -4.190  24.781  0.00  0.00    +0.184 C 
BRANCH  18  19
ATOM     19  C   SER A   3       8.117  -4.538  23.895  0.00  0.00    +0.236 C 
ATOM     20  N   SER A   4       7.020  -3.725  24.020  0.00  0.00    -0.302 N 
ATOM     21  H   SER A   4       7.106  -2.818  24.476  0.00  0.00    +0.150 HD
ATOM     22  O   SER A   3       8.118  -5.528  23.160  0.00  0.00    -0.274 OA
BRANCH  20  23
ATOM     23  CA  SER A   4       5.861  -3.865  23.135  0.00  0.00    +0.161 C 
BRANCH  23  24
ATOM     24  C   SER A   4       5.942  -2.765  22.087  0.00  0.00    +0.247 C 
ATOM     25  O   SER A   4       6.734  -1.826  22.163  0.00  0.00    -0.299 OA
ENDBRANCH  23  24
BRANCH  23  26
ATOM     26  CB  SER A   4       4.525  -3.771  23.878  0.00  0.00    +0.185 C 
BRANCH  26  27
ATOM     27  OG  SER A   4       4.726  -3.422  25.247  0.00  0.00    -0.393 OA
ATOM     28  H   SER A   4       5.448  -2.768  25.262  0.00  0.00    +0.209 HD
ENDBRANCH  26  27
ENDBRANCH  23  26
ENDBRANCH  20  23
ENDBRANCH  18  19
BRANCH  18  29
ATOM     29  CB  SER A   3       9.231  -4.829  26.170  0.00  0.00    +0.187 C 
BRANCH  29  30
ATOM     30  OG  SER A   3       8.201  -5.814  26.221  0.00  0.00    -0.393 OA
ATOM     31  H   SER A   3       8.400  -6.465  25.524  0.00  0.00    +0.209 HD
ENDBRANCH  29  30
ENDBRANCH  18  29
ENDBRANCH  16  18
ENDBRANCH   1  14
BRANCH   1  32
ATOM     32  CB  GLN A   2       9.184  -0.070  25.381  0.00  0.00    +0.041 C 
BRANCH  32  33
ATOM     33  CG  GLN A   2       7.764   0.486  25.281  0.00  0.00    +0.098 C 
BRANCH  33  34
ATOM     34  CD  GLN A   2       6.672  -0.550  25.452  0.00  0.00    +0.211 C 
ATOM     35  OE1 GLN A   2       6.815  -1.544  26.157  0.00  0.00    -0.276 OA
ATOM     36  NE2 GLN A   2       5.544  -0.395  24.708  0.00  0.00    -0.329 N 
ATOM     37 HE21 GLN A   2       5.288   0.470  24.255  0.00  0.00    +0.145 HD
ATOM     38 HE22 GLN A   2       4.809  -1.075  24.863  0.00  0.00    +0.145 HD
ENDBRANCH  33  34
ENDBRANCH  32  33
ENDBRANCH   1  32
TORSDOF 17
ENDMDL
MODEL 18
REMARK VINA RESULT:      -6.1      2.532      6.470
REMARK  Name = LQSS-mmff94.pdb
REMARK  19 active torsions:
REMARK  status: ('A' for Active; 'I' for Inactive)
REMARK    1  A    between atoms: _1  and  _2
REMARK    2  A    between atoms: _2  and  _3
REMARK    3  A    between atoms: _2  and  _5
REMARK    4  A    between atoms: _5  and  _6
REMARK    5  A    between atoms: _6  and  _7
REMARK    6  A    between atoms: _6  and  _8
REMARK    7  A    between atoms: _20  and  _21
REMARK    8  A    between atoms: _21  and  _22
REMARK    9  A    between atoms: _21  and  _24
REMARK   10  A    between atoms: _24  and  _25
REMARK   11  A    between atoms: _25  and  _26
REMARK   12  A    between atoms: _37  and  _38
REMARK   13  A    between atoms: _38  and  _39
REMARK   14  A    between atoms: _38  and  _41
REMARK   15  A    between atoms: _41  and  _42
REMARK   16  A    between atoms: _48  and  _49
REMARK   17  A    between atoms: _49  and  _50
REMARK   18  A    between atoms: _49  and  _52
REMARK   19  A    between atoms: _52  and  _53
REMARK                            x       y       z     vdW  Elec       q    Type
REMARK                         _______ _______ _______ _____ _____    ______ ____
ROOT
ATOM      1  CA  GLN A   2       7.581  -3.201  22.450  0.00  0.00    +0.159 C 
ENDROOT
BRANCH   1   3
ATOM      2  C   LEU A   1       8.459  -4.315  24.493  0.00  0.00    +0.230 C 
ATOM      3  N   GLN A   2       7.951  -3.204  23.865  0.00  0.00    -0.303 N 
ATOM      4  H   GLN A   2       7.779  -2.349  24.387  0.00  0.00    +0.149 HD
ATOM      5  O   LEU A   1       8.653  -5.375  23.901  0.00  0.00    -0.274 OA
BRANCH   2   6
ATOM      6  CA  LEU A   1       8.741  -4.132  26.003  0.00  0.00    +0.138 C 
BRANCH   6   7
ATOM      7  N   LEU A   1       8.464  -2.734  26.385  0.00  0.00    -0.320 NA
ATOM      8  H1  LEU A   1       8.674  -2.139  25.581  0.00  0.00    +0.119 HD
ATOM      9  H2  LEU A   1       7.449  -2.638  26.488  0.00  0.00    +0.119 HD
ENDBRANCH   6   7
BRANCH   6  10
ATOM     10  CB  LEU A   1       7.885  -5.115  26.819  0.00  0.00    +0.031 C 
BRANCH  10  11
ATOM     11  CG  LEU A   1       6.362  -4.878  26.756  0.00  0.00    -0.015 C 
ATOM     12  CD2 LEU A   1       5.681  -6.072  26.080  0.00  0.00    +0.007 C 
ATOM     13  CD1 LEU A   1       5.749  -4.649  28.138  0.00  0.00    +0.007 C 
ENDBRANCH  10  11
ENDBRANCH   6  10
ENDBRANCH   2   6
ENDBRANCH   1   3
BRANCH   1  14
ATOM     14  C   GLN A   2       8.219  -1.939  21.838  0.00  0.00    +0.234 C 
ATOM     15  O   GLN A   2       9.436  -1.811  21.716  0.00  0.00    -0.274 OA
ATOM     16  N   SER A   3       7.339  -0.954  21.468  0.00  0.00    -0.301 N 
ATOM     17  H   SER A   3       6.338  -1.052  21.630  0.00  0.00    +0.150 HD
BRANCH  16  18
ATOM     18  CA  SER A   3       7.785   0.371  21.027  0.00  0.00    +0.184 C 
BRANCH  18  19
ATOM     19  C   SER A   3       8.338   1.096  22.268  0.00  0.00    +0.236 C 
ATOM     20  N   SER A   4       8.029   0.538  23.483  0.00  0.00    -0.302 N 
ATOM     21  H   SER A   4       7.680  -0.418  23.532  0.00  0.00    +0.150 HD
ATOM     22  O   SER A   3       8.971   2.149  22.173  0.00  0.00    -0.274 OA
BRANCH  20  23
ATOM     23  CA  SER A   4       8.609   1.050  24.726  0.00  0.00    +0.161 C 
BRANCH  23  24
ATOM     24  C   SER A   4       9.906   0.296  24.978  0.00  0.00    +0.247 C 
ATOM     25  O   SER A   4      10.009  -0.923  24.841  0.00  0.00    -0.299 OA
ENDBRANCH  23  24
BRANCH  23  26
ATOM     26  CB  SER A   4       7.679   0.889  25.932  0.00  0.00    +0.185 C 
BRANCH  26  27
ATOM     27  OG  SER A   4       8.352   0.246  27.014  0.00  0.00    -0.393 OA
ATOM     28  H   SER A   4       8.352   0.881  27.754  0.00  0.00    +0.209 HD
ENDBRANCH  26  27
ENDBRANCH  23  26
ENDBRANCH  20  23
ENDBRANCH  18  19
BRANCH  18  29
ATOM     29  CB  SER A   3       6.656   1.157  20.352  0.00  0.00    +0.187 C 
BRANCH  29  30
ATOM     30  OG  SER A   3       5.940   1.954  21.293  0.00  0.00    -0.393 OA
ATOM     31  H   SER A   3       5.007   1.951  21.011  0.00  0.00    +0.209 HD
ENDBRANCH  29  30
ENDBRANCH  18  29
ENDBRANCH  16  18
ENDBRANCH   1  14
BRANCH   1  32
ATOM     32  CB  GLN A   2       6.051  -3.197  22.301  0.00  0.00    +0.041 C 
BRANCH  32  33
ATOM     33  CG  GLN A   2       5.407  -4.571  22.476  0.00  0.00    +0.098 C 
BRANCH  33  34
ATOM     34  CD  GLN A   2       5.973  -5.649  21.575  0.00  0.00    +0.211 C 
ATOM     35  OE1 GLN A   2       5.965  -5.552  20.352  0.00  0.00    -0.276 OA
ATOM     36  NE2 GLN A   2       6.406  -6.793  22.168  0.00  0.00    -0.329 N 
ATOM     37 HE21 GLN A   2       6.606  -6.870  23.155  0.00  0.00    +0.145 HD
ATOM     38 HE22 GLN A   2       6.816  -7.488  21.555  0.00  0.00    +0.145 HD
ENDBRANCH  33  34
ENDBRANCH  32  33
ENDBRANCH   1  32
TORSDOF 17
ENDMDL
MODEL 19
REMARK VINA RESULT:      -6.1      2.292      4.861
REMARK  Name = LQSS-mmff94.pdb
REMARK  19 active torsions:
REMARK  status: ('A' for Active; 'I' for Inactive)
REMARK    1  A    between atoms: _1  and  _2
REMARK    2  A    between atoms: _2  and  _3
REMARK    3  A    between atoms: _2  and  _5
REMARK    4  A    between atoms: _5  and  _6
REMARK    5  A    between atoms: _6  and  _7
REMARK    6  A    between atoms: _6  and  _8
REMARK    7  A    between atoms: _20  and  _21
REMARK    8  A    between atoms: _21  and  _22
REMARK    9  A    between atoms: _21  and  _24
REMARK   10  A    between atoms: _24  and  _25
REMARK   11  A    between atoms: _25  and  _26
REMARK   12  A    between atoms: _37  and  _38
REMARK   13  A    between atoms: _38  and  _39
REMARK   14  A    between atoms: _38  and  _41
REMARK   15  A    between atoms: _41  and  _42
REMARK   16  A    between atoms: _48  and  _49
REMARK   17  A    between atoms: _49  and  _50
REMARK   18  A    between atoms: _49  and  _52
REMARK   19  A    between atoms: _52  and  _53
REMARK                            x       y       z     vdW  Elec       q    Type
REMARK                         _______ _______ _______ _____ _____    ______ ____
ROOT
ATOM      1  CA  GLN A   2       8.215  -0.837  21.360  0.00  0.00    +0.159 C 
ENDROOT
BRANCH   1   3
ATOM      2  C   LEU A   1       6.928  -2.815  22.143  0.00  0.00    +0.230 C 
ATOM      3  N   GLN A   2       6.965  -1.566  21.574  0.00  0.00    -0.303 N 
ATOM      4  H   GLN A   2       6.112  -1.123  21.245  0.00  0.00    +0.149 HD
ATOM      5  O   LEU A   1       7.943  -3.395  22.528  0.00  0.00    -0.274 OA
BRANCH   2   6
ATOM      6  CA  LEU A   1       5.517  -3.442  22.238  0.00  0.00    +0.138 C 
BRANCH   6   7
ATOM      7  N   LEU A   1       5.497  -4.712  21.487  0.00  0.00    -0.320 NA
ATOM      8  H1  LEU A   1       6.165  -4.636  20.718  0.00  0.00    +0.119 HD
ATOM      9  H2  LEU A   1       5.914  -5.430  22.088  0.00  0.00    +0.119 HD
ENDBRANCH   6   7
BRANCH   6  10
ATOM     10  CB  LEU A   1       5.135  -3.655  23.711  0.00  0.00    +0.031 C 
BRANCH  10  11
ATOM     11  CG  LEU A   1       4.128  -4.794  23.977  0.00  0.00    -0.015 C 
ATOM     12  CD2 LEU A   1       4.791  -5.882  24.826  0.00  0.00    +0.007 C 
ATOM     13  CD1 LEU A   1       2.858  -4.300  24.671  0.00  0.00    +0.007 C 
ENDBRANCH  10  11
ENDBRANCH   6  10
ENDBRANCH   2   6
ENDBRANCH   1   3
BRANCH   1  14
ATOM     14  C   GLN A   2       8.468  -0.024  22.645  0.00  0.00    +0.234 C 
ATOM     15  O   GLN A   2       8.985   1.092  22.625  0.00  0.00    -0.274 OA
ATOM     16  N   SER A   3       8.108  -0.644  23.814  0.00  0.00    -0.301 N 
ATOM     17  H   SER A   3       7.736  -1.592  23.817  0.00  0.00    +0.150 HD
BRANCH  16  18
ATOM     18  CA  SER A   3       8.431  -0.084  25.130  0.00  0.00    +0.184 C 
BRANCH  18  19
ATOM     19  C   SER A   3       8.666  -1.273  26.079  0.00  0.00    +0.236 C 
ATOM     20  N   SER A   4       8.501  -2.523  25.537  0.00  0.00    -0.302 N 
ATOM     21  H   SER A   4       8.477  -2.641  24.525  0.00  0.00    +0.150 HD
ATOM     22  O   SER A   3       8.930  -1.107  27.272  0.00  0.00    -0.274 OA
BRANCH  20  23
ATOM     23  CA  SER A   4       8.830  -3.733  26.294  0.00  0.00    +0.161 C 
BRANCH  23  24
ATOM     24  C   SER A   4       9.671  -4.628  25.396  0.00  0.00    +0.247 C 
ATOM     25  O   SER A   4       9.181  -5.466  24.639  0.00  0.00    -0.299 OA
ENDBRANCH  23  24
BRANCH  23  26
ATOM     26  CB  SER A   4       7.592  -4.498  26.769  0.00  0.00    +0.185 C 
BRANCH  26  27
ATOM     27  OG  SER A   4       7.955  -5.757  27.335  0.00  0.00    -0.393 OA
ATOM     28  H   SER A   4       7.638  -5.746  28.257  0.00  0.00    +0.209 HD
ENDBRANCH  26  27
ENDBRANCH  23  26
ENDBRANCH  20  23
ENDBRANCH  18  19
BRANCH  18  29
ATOM     29  CB  SER A   3       7.331   0.853  25.637  0.00  0.00    +0.187 C 
BRANCH  29  30
ATOM     30  OG  SER A   3       7.740   1.553  26.811  0.00  0.00    -0.393 OA
ATOM     31  H   SER A   3       7.039   2.198  27.012  0.00  0.00    +0.209 HD
ENDBRANCH  29  30
ENDBRANCH  18  29
ENDBRANCH  16  18
ENDBRANCH   1  14
BRANCH   1  32
ATOM     32  CB  GLN A   2       8.096   0.071  20.125  0.00  0.00    +0.041 C 
BRANCH  32  33
ATOM     33  CG  GLN A   2       6.665   0.499  19.805  0.00  0.00    +0.098 C 
BRANCH  33  34
ATOM     34  CD  GLN A   2       6.229   0.217  18.382  0.00  0.00    +0.211 C 
ATOM     35  OE1 GLN A   2       6.237   1.080  17.510  0.00  0.00    -0.276 OA
ATOM     36  NE2 GLN A   2       5.724  -1.018  18.117  0.00  0.00    -0.329 N 
ATOM     37 HE21 GLN A   2       5.851  -1.815  18.724  0.00  0.00    +0.145 HD
ATOM     38 HE22 GLN A   2       5.474  -1.202  17.153  0.00  0.00    +0.145 HD
ENDBRANCH  33  34
ENDBRANCH  32  33
ENDBRANCH   1  32
TORSDOF 17
ENDMDL
MODEL 20
REMARK VINA RESULT:      -6.1      2.482      5.327
REMARK  Name = LQSS-mmff94.pdb
REMARK  19 active torsions:
REMARK  status: ('A' for Active; 'I' for Inactive)
REMARK    1  A    between atoms: _1  and  _2
REMARK    2  A    between atoms: _2  and  _3
REMARK    3  A    between atoms: _2  and  _5
REMARK    4  A    between atoms: _5  and  _6
REMARK    5  A    between atoms: _6  and  _7
REMARK    6  A    between atoms: _6  and  _8
REMARK    7  A    between atoms: _20  and  _21
REMARK    8  A    between atoms: _21  and  _22
REMARK    9  A    between atoms: _21  and  _24
REMARK   10  A    between atoms: _24  and  _25
REMARK   11  A    between atoms: _25  and  _26
REMARK   12  A    between atoms: _37  and  _38
REMARK   13  A    between atoms: _38  and  _39
REMARK   14  A    between atoms: _38  and  _41
REMARK   15  A    between atoms: _41  and  _42
REMARK   16  A    between atoms: _48  and  _49
REMARK   17  A    between atoms: _49  and  _50
REMARK   18  A    between atoms: _49  and  _52
REMARK   19  A    between atoms: _52  and  _53
REMARK                            x       y       z     vdW  Elec       q    Type
REMARK                         _______ _______ _______ _____ _____    ______ ____
ROOT
ATOM      1  CA  GLN A   2       9.415  -0.943  25.289  0.00  0.00    +0.159 C 
ENDROOT
BRANCH   1   3
ATOM      2  C   LEU A   1       9.919   0.740  23.530  0.00  0.00    +0.230 C 
ATOM      3  N   GLN A   2       9.092  -0.220  24.060  0.00  0.00    -0.303 N 
ATOM      4  H   GLN A   2       8.198  -0.429  23.624  0.00  0.00    +0.149 HD
ATOM      5  O   LEU A   1      10.996   1.040  24.045  0.00  0.00    -0.274 OA
BRANCH   2   6
ATOM      6  CA  LEU A   1       9.379   1.427  22.253  0.00  0.00    +0.138 C 
BRANCH   6   7
ATOM      7  N   LEU A   1      10.350   2.441  21.798  0.00  0.00    -0.320 NA
ATOM      8  H1  LEU A   1      10.103   3.333  22.231  0.00  0.00    +0.119 HD
ATOM      9  H2  LEU A   1      11.253   2.216  22.227  0.00  0.00    +0.119 HD
ENDBRANCH   6   7
BRANCH   6  10
ATOM     10  CB  LEU A   1       9.114   0.376  21.163  0.00  0.00    +0.031 C 
BRANCH  10  11
ATOM     11  CG  LEU A   1       7.654   0.284  20.673  0.00  0.00    -0.015 C 
ATOM     12  CD2 LEU A   1       6.875   1.518  21.137  0.00  0.00    +0.007 C 
ATOM     13  CD1 LEU A   1       7.557   0.154  19.152  0.00  0.00    +0.007 C 
ENDBRANCH  10  11
ENDBRANCH   6  10
ENDBRANCH   2   6
ENDBRANCH   1   3
BRANCH   1  14
ATOM     14  C   GLN A   2       9.307  -2.443  24.950  0.00  0.00    +0.234 C 
ATOM     15  O   GLN A   2       9.860  -2.935  23.967  0.00  0.00    -0.274 OA
ATOM     16  N   SER A   3       8.527  -3.185  25.799  0.00  0.00    -0.301 N 
ATOM     17  H   SER A   3       8.029  -2.750  26.574  0.00  0.00    +0.150 HD
BRANCH  16  18
ATOM     18  CA  SER A   3       8.185  -4.585  25.528  0.00  0.00    +0.184 C 
BRANCH  18  19
ATOM     19  C   SER A   3       6.959  -4.575  24.597  0.00  0.00    +0.236 C 
ATOM     20  N   SER A   4       7.209  -4.341  23.269  0.00  0.00    -0.302 N 
ATOM     21  H   SER A   4       8.157  -4.425  22.905  0.00  0.00    +0.150 HD
ATOM     22  O   SER A   3       5.814  -4.712  25.033  0.00  0.00    -0.274 OA
BRANCH  20  23
ATOM     23  CA  SER A   4       6.149  -4.445  22.263  0.00  0.00    +0.161 C 
BRANCH  23  24
ATOM     24  C   SER A   4       6.565  -5.511  21.260  0.00  0.00    +0.247 C 
ATOM     25  O   SER A   4       5.824  -5.909  20.361  0.00  0.00    -0.299 OA
ENDBRANCH  23  24
BRANCH  23  26
ATOM     26  CB  SER A   4       5.885  -3.126  21.532  0.00  0.00    +0.185 C 
BRANCH  26  27
ATOM     27  OG  SER A   4       5.912  -2.025  22.440  0.00  0.00    -0.393 OA
ATOM     28  H   SER A   4       5.979  -1.220  21.894  0.00  0.00    +0.209 HD
ENDBRANCH  26  27
ENDBRANCH  23  26
ENDBRANCH  20  23
ENDBRANCH  18  19
BRANCH  18  29
ATOM     29  CB  SER A   3       7.926  -5.368  26.819  0.00  0.00    +0.187 C 
BRANCH  29  30
ATOM     30  OG  SER A   3       6.991  -4.695  27.660  0.00  0.00    -0.393 OA
ATOM     31  H   SER A   3       7.221  -3.749  27.633  0.00  0.00    +0.209 HD
ENDBRANCH  29  30
ENDBRANCH  18  29
ENDBRANCH  16  18
ENDBRANCH   1  14
BRANCH   1  32
ATOM     32  CB  GLN A   2       8.445  -0.542  26.412  0.00  0.00    +0.041 C 
BRANCH  32  33
ATOM     33  CG  GLN A   2       7.043  -0.185  25.923  0.00  0.00    +0.098 C 
BRANCH  33  34
ATOM     34  CD  GLN A   2       6.007  -1.269  26.143  0.00  0.00    +0.211 C 
ATOM     35  OE1 GLN A   2       5.978  -1.951  27.162  0.00  0.00    -0.276 OA
ATOM     36  NE2 GLN A   2       5.158  -1.537  25.115  0.00  0.00    -0.329 N 
ATOM     37 HE21 GLN A   2       5.009  -0.912  24.336  0.00  0.00    +0.145 HD
ATOM     38 HE22 GLN A   2       4.448  -2.238  25.292  0.00  0.00    +0.145 HD
ENDBRANCH  33  34
ENDBRANCH  32  33
ENDBRANCH   1  32
TORSDOF 17
ENDMDL
