REMARK  Name = LQSS-mmff94.pdb
REMARK  19 active torsions:
REMARK  status: ('A' for Active; 'I' for Inactive)
REMARK    1  A    between atoms: _1  and  _2
REMARK    2  A    between atoms: _2  and  _3
REMARK    3  A    between atoms: _2  and  _5
REMARK    4  A    between atoms: _5  and  _6
REMARK    5  A    between atoms: _6  and  _7
REMARK    6  A    between atoms: _6  and  _8
REMARK    7  A    between atoms: _20  and  _21
REMARK    8  A    between atoms: _21  and  _22
REMARK    9  A    between atoms: _21  and  _24
REMARK   10  A    between atoms: _24  and  _25
REMARK   11  A    between atoms: _25  and  _26
REMARK   12  A    between atoms: _37  and  _38
REMARK   13  A    between atoms: _38  and  _39
REMARK   14  A    between atoms: _38  and  _41
REMARK   15  A    between atoms: _41  and  _42
REMARK   16  A    between atoms: _48  and  _49
REMARK   17  A    between atoms: _49  and  _50
REMARK   18  A    between atoms: _49  and  _52
REMARK   19  A    between atoms: _52  and  _53
REMARK                            x       y       z     vdW  Elec       q    Type
REMARK                         _______ _______ _______ _____ _____    ______ ____
ROOT
ATOM      1  CA  GLN A   2       4.904   0.144  -1.149  0.00  0.00    +0.159 C 
ENDROOT
BRANCH   1   3
ATOM      2  C   LEU A   1       2.721  -0.981  -0.758  0.00  0.00    +0.230 C 
ATOM      3  N   GLN A   2       3.442   0.136  -1.103  0.00  0.00    -0.303 N 
ATOM      4  H   GLN A   2       2.968   0.992  -1.378  0.00  0.00    +0.149 HD
ATOM      5  O   LEU A   1       3.259  -2.043  -0.447  0.00  0.00    -0.274 OA
BRANCH   2   6
ATOM      6  CA  LEU A   1       1.185  -0.804  -0.817  0.00  0.00    +0.138 C 
BRANCH   6   7
ATOM      7  N   LEU A   1       0.541  -2.132  -0.802  0.00  0.00    -0.320 NA
ATOM      8  H1  LEU A   1       0.951  -2.691  -1.553  0.00  0.00    +0.119 HD
ATOM      9  H2  LEU A   1       0.853  -2.615   0.046  0.00  0.00    +0.119 HD
ENDBRANCH   6   7
BRANCH   6  10
ATOM     10  CB  LEU A   1       0.711   0.062   0.361  0.00  0.00    +0.031 C 
BRANCH  10  11
ATOM     11  CG  LEU A   1      -0.815   0.268   0.460  0.00  0.00    -0.015 C 
ATOM     12  CD2 LEU A   1      -1.144   1.104   1.700  0.00  0.00    +0.007 C 
ATOM     13  CD1 LEU A   1      -1.395   0.941  -0.785  0.00  0.00    +0.007 C 
ENDBRANCH  10  11
ENDBRANCH   6  10
ENDBRANCH   2   6
ENDBRANCH   1   3
BRANCH   1  14
ATOM     14  C   GLN A   2       5.330   1.625  -1.115  0.00  0.00    +0.234 C 
ATOM     15  O   GLN A   2       4.586   2.531  -1.489  0.00  0.00    -0.274 OA
ATOM     16  N   SER A   3       6.605   1.861  -0.670  0.00  0.00    -0.301 N 
ATOM     17  H   SER A   3       7.228   1.095  -0.420  0.00  0.00    +0.150 HD
BRANCH  16  18
ATOM     18  CA  SER A   3       7.224   3.189  -0.732  0.00  0.00    +0.184 C 
BRANCH  18  19
ATOM     19  C   SER A   3       8.748   2.974  -0.761  0.00  0.00    +0.236 C 
ATOM     20  N   SER A   4       9.512   4.087  -1.006  0.00  0.00    -0.302 N 
ATOM     21  H   SER A   4       9.104   5.016  -0.918  0.00  0.00    +0.150 HD
ATOM     22  O   SER A   3       9.246   1.854  -0.630  0.00  0.00    -0.274 OA
BRANCH  20  23
ATOM     23  CA  SER A   4      10.974   4.042  -0.921  0.00  0.00    +0.161 C 
BRANCH  23  24
ATOM     24  C   SER A   4      11.479   5.476  -0.860  0.00  0.00    +0.247 C 
ATOM     25  O   SER A   4      10.742   6.436  -0.634  0.00  0.00    -0.299 OA
ENDBRANCH  23  24
BRANCH  23  26
ATOM     26  CB  SER A   4      11.621   3.319  -2.106  0.00  0.00    +0.185 C 
BRANCH  26  27
ATOM     27  OG  SER A   4      11.224   3.910  -3.343  0.00  0.00    -0.393 OA
ATOM     28  H   SER A   4      10.261   3.778  -3.415  0.00  0.00    +0.209 HD
ENDBRANCH  26  27
ENDBRANCH  23  26
ENDBRANCH  20  23
ENDBRANCH  18  19
BRANCH  18  29
ATOM     29  CB  SER A   3       6.786   4.077   0.437  0.00  0.00    +0.187 C 
BRANCH  29  30
ATOM     30  OG  SER A   3       7.041   3.450   1.693  0.00  0.00    -0.393 OA
ATOM     31  H   SER A   3       6.520   2.627   1.706  0.00  0.00    +0.209 HD
ENDBRANCH  29  30
ENDBRANCH  18  29
ENDBRANCH  16  18
ENDBRANCH   1  14
BRANCH   1  32
ATOM     32  CB  GLN A   2       5.399  -0.563  -2.421  0.00  0.00    +0.041 C 
BRANCH  32  33
ATOM     33  CG  GLN A   2       6.916  -0.726  -2.490  0.00  0.00    +0.098 C 
BRANCH  33  34
ATOM     34  CD  GLN A   2       7.390  -1.776  -3.474  0.00  0.00    +0.211 C 
ATOM     35  OE1 GLN A   2       8.381  -2.469  -3.267  0.00  0.00    -0.276 OA
ATOM     36  NE2 GLN A   2       6.732  -1.860  -4.661  0.00  0.00    -0.329 N 
ATOM     37 HE21 GLN A   2       5.820  -1.458  -4.824  0.00  0.00    +0.145 HD
ATOM     38 HE22 GLN A   2       7.037  -2.592  -5.291  0.00  0.00    +0.145 HD
ENDBRANCH  33  34
ENDBRANCH  32  33
ENDBRANCH   1  32
TORSDOF 17
