MODEL 1
REMARK VINA RESULT:      -6.2      0.000      0.000
REMARK  Name = VQSK-mmff94.pdb
REMARK  21 active torsions:
REMARK  status: ('A' for Active; 'I' for Inactive)
REMARK    1  A    between atoms: _1  and  _2
REMARK    2  A    between atoms: _2  and  _3
REMARK    3  A    between atoms: _2  and  _5
REMARK    4  A    between atoms: _5  and  _6
REMARK    5  A    between atoms: _5  and  _7
REMARK    6  A    between atoms: _17  and  _18
REMARK    7  A    between atoms: _18  and  _19
REMARK    8  A    between atoms: _18  and  _21
REMARK    9  A    between atoms: _21  and  _22
REMARK   10  A    between atoms: _22  and  _23
REMARK   11  A    between atoms: _34  and  _35
REMARK   12  A    between atoms: _35  and  _36
REMARK   13  A    between atoms: _35  and  _38
REMARK   14  A    between atoms: _38  and  _39
REMARK   15  A    between atoms: _45  and  _46
REMARK   16  A    between atoms: _46  and  _47
REMARK   17  A    between atoms: _46  and  _49
REMARK   18  A    between atoms: _49  and  _50
REMARK   19  A    between atoms: _50  and  _51
REMARK   20  A    between atoms: _51  and  _52
REMARK   21  A    between atoms: _52  and  _53
REMARK                            x       y       z     vdW  Elec       q    Type
REMARK                         _______ _______ _______ _____ _____    ______ ____
ROOT
ATOM      1  C   GLN A   2       9.588  -2.196  23.905  0.00  0.00    +0.234 C 
ATOM      2  O   GLN A   2      10.487  -2.814  23.334  0.00  0.00    -0.274 OA
ATOM      3  N   SER A   3       8.792  -2.779  24.854  0.00  0.00    -0.301 N 
ATOM      4  H   SER A   3       8.061  -2.259  25.332  0.00  0.00    +0.150 HD
ENDROOT
BRANCH   3   5
ATOM      5  CA  SER A   3       8.864  -4.209  25.153  0.00  0.00    +0.184 C 
BRANCH   5   6
ATOM      6  C   SER A   3       7.850  -4.923  24.244  0.00  0.00    +0.236 C 
ATOM      7  O   SER A   3       8.197  -5.571  23.253  0.00  0.00    -0.274 OA
ATOM      8  N   LYS A   4       6.535  -4.828  24.631  0.00  0.00    -0.304 N 
ATOM      9  H   LYS A   4       6.275  -4.330  25.481  0.00  0.00    +0.149 HD
BRANCH   8  10
ATOM     10  CA  LYS A   4       5.462  -5.468  23.881  0.00  0.00    +0.136 C 
BRANCH  10  11
ATOM     11  C   LYS A   4       4.772  -4.375  23.080  0.00  0.00    +0.245 C 
ATOM     12  O   LYS A   4       5.179  -3.979  21.989  0.00  0.00    -0.299 OA
ENDBRANCH  10  11
BRANCH  10  13
ATOM     13  CB  LYS A   4       4.469  -6.162  24.822  0.00  0.00    +0.030 C 
BRANCH  13  14
ATOM     14  CG  LYS A   4       4.579  -5.692  26.277  0.00  0.00    +0.007 C 
BRANCH  14  15
ATOM     15  CD  LYS A   4       4.871  -6.873  27.208  0.00  0.00    +0.051 C 
BRANCH  15  16
ATOM     16  CE  LYS A   4       5.305  -6.407  28.589  0.00  0.00    +0.127 C 
BRANCH  16  17
ATOM     17  NZ  LYS A   4       6.483  -7.199  29.019  0.00  0.00    +0.219 N 
ATOM     18  HZ1 LYS A   4       7.360  -6.678  28.874  0.00  0.00    +0.199 HD
ATOM     19  HZ2 LYS A   4       6.558  -8.076  28.487  0.00  0.00    +0.199 HD
ATOM     20  HZ3 LYS A   4       6.435  -7.448  30.016  0.00  0.00    +0.199 HD
ENDBRANCH  16  17
ENDBRANCH  15  16
ENDBRANCH  14  15
ENDBRANCH  13  14
ENDBRANCH  10  13
ENDBRANCH   8  10
ENDBRANCH   5   6
BRANCH   5  21
ATOM     21  CB  SER A   3       8.605  -4.509  26.633  0.00  0.00    +0.187 C 
BRANCH  21  22
ATOM     22  OG  SER A   3       8.286  -5.886  26.836  0.00  0.00    -0.393 OA
ATOM     23  H   SER A   3       7.328  -5.928  27.007  0.00  0.00    +0.209 HD
ENDBRANCH  21  22
ENDBRANCH   5  21
ENDBRANCH   3   5
BRANCH   1  24
ATOM     24  CA  GLN A   2       9.254  -0.732  23.564  0.00  0.00    +0.159 C 
BRANCH  24  26
ATOM     25  C   VAL A   1       8.352  -0.333  21.287  0.00  0.00    +0.231 C 
ATOM     26  N   GLN A   2       8.185  -0.783  22.572  0.00  0.00    -0.303 N 
ATOM     27  H   GLN A   2       7.307  -1.208  22.861  0.00  0.00    +0.149 HD
ATOM     28  O   VAL A   1       9.399   0.188  20.905  0.00  0.00    -0.274 OA
BRANCH  25  29
ATOM     29  CA  VAL A   1       7.113  -0.508  20.370  0.00  0.00    +0.140 C 
BRANCH  29  30
ATOM     30  CB  VAL A   1       6.585   0.851  19.849  0.00  0.00    +0.009 C 
ATOM     31  CG2 VAL A   1       5.325   0.695  18.989  0.00  0.00    +0.009 C 
ATOM     32  CG1 VAL A   1       6.270   1.814  21.004  0.00  0.00    +0.009 C 
ENDBRANCH  29  30
BRANCH  29  33
ATOM     33  N   VAL A   1       6.071  -1.221  21.140  0.00  0.00    -0.320 NA
ATOM     34  H1  VAL A   1       5.982  -2.168  20.771  0.00  0.00    +0.119 HD
ATOM     35  H2  VAL A   1       6.429  -1.356  22.090  0.00  0.00    +0.119 HD
ENDBRANCH  29  33
ENDBRANCH  25  29
ENDBRANCH  24  26
BRANCH  24  36
ATOM     36  CB  GLN A   2       8.795   0.036  24.811  0.00  0.00    +0.041 C 
BRANCH  36  37
ATOM     37  CG  GLN A   2       8.693   1.545  24.587  0.00  0.00    +0.098 C 
BRANCH  37  38
ATOM     38  CD  GLN A   2       9.864   2.088  23.798  0.00  0.00    +0.211 C 
ATOM     39  OE1 GLN A   2      11.032   1.899  24.123  0.00  0.00    -0.276 OA
ATOM     40  NE2 GLN A   2       9.546   2.783  22.672  0.00  0.00    -0.329 N 
ATOM     41 HE21 GLN A   2       8.601   2.876  22.323  0.00  0.00    +0.145 HD
ATOM     42 HE22 GLN A   2      10.302   3.140  22.100  0.00  0.00    +0.145 HD
ENDBRANCH  37  38
ENDBRANCH  36  37
ENDBRANCH  24  36
ENDBRANCH   1  24
TORSDOF 19
ENDMDL
MODEL 2
REMARK VINA RESULT:      -6.1      2.421      3.715
REMARK  Name = VQSK-mmff94.pdb
REMARK  21 active torsions:
REMARK  status: ('A' for Active; 'I' for Inactive)
REMARK    1  A    between atoms: _1  and  _2
REMARK    2  A    between atoms: _2  and  _3
REMARK    3  A    between atoms: _2  and  _5
REMARK    4  A    between atoms: _5  and  _6
REMARK    5  A    between atoms: _5  and  _7
REMARK    6  A    between atoms: _17  and  _18
REMARK    7  A    between atoms: _18  and  _19
REMARK    8  A    between atoms: _18  and  _21
REMARK    9  A    between atoms: _21  and  _22
REMARK   10  A    between atoms: _22  and  _23
REMARK   11  A    between atoms: _34  and  _35
REMARK   12  A    between atoms: _35  and  _36
REMARK   13  A    between atoms: _35  and  _38
REMARK   14  A    between atoms: _38  and  _39
REMARK   15  A    between atoms: _45  and  _46
REMARK   16  A    between atoms: _46  and  _47
REMARK   17  A    between atoms: _46  and  _49
REMARK   18  A    between atoms: _49  and  _50
REMARK   19  A    between atoms: _50  and  _51
REMARK   20  A    between atoms: _51  and  _52
REMARK   21  A    between atoms: _52  and  _53
REMARK                            x       y       z     vdW  Elec       q    Type
REMARK                         _______ _______ _______ _____ _____    ______ ____
ROOT
ATOM      1  C   GLN A   2       8.582  -0.647  25.830  0.00  0.00    +0.234 C 
ATOM      2  O   GLN A   2       9.035  -0.902  26.946  0.00  0.00    -0.274 OA
ATOM      3  N   SER A   3       7.254  -0.379  25.627  0.00  0.00    -0.301 N 
ATOM      4  H   SER A   3       6.890  -0.155  24.706  0.00  0.00    +0.150 HD
ENDROOT
BRANCH   3   5
ATOM      5  CA  SER A   3       6.265  -0.512  26.696  0.00  0.00    +0.184 C 
BRANCH   5   6
ATOM      6  C   SER A   3       5.576  -1.876  26.520  0.00  0.00    +0.236 C 
ATOM      7  O   SER A   3       4.400  -1.978  26.163  0.00  0.00    -0.274 OA
ATOM      8  N   LYS A   4       6.370  -2.975  26.744  0.00  0.00    -0.304 N 
ATOM      9  H   LYS A   4       7.352  -2.870  26.989  0.00  0.00    +0.149 HD
BRANCH   8  10
ATOM     10  CA  LYS A   4       5.863  -4.334  26.597  0.00  0.00    +0.136 C 
BRANCH  10  11
ATOM     11  C   LYS A   4       6.470  -5.154  27.725  0.00  0.00    +0.245 C 
ATOM     12  O   LYS A   4       7.533  -5.764  27.620  0.00  0.00    -0.299 OA
ENDBRANCH  10  11
BRANCH  10  13
ATOM     13  CB  LYS A   4       6.244  -4.920  25.232  0.00  0.00    +0.030 C 
BRANCH  13  14
ATOM     14  CG  LYS A   4       7.078  -3.965  24.371  0.00  0.00    +0.007 C 
BRANCH  14  15
ATOM     15  CD  LYS A   4       8.425  -4.598  24.008  0.00  0.00    +0.051 C 
BRANCH  15  16
ATOM     16  CE  LYS A   4       9.479  -4.327  25.071  0.00  0.00    +0.127 C 
BRANCH  16  17
ATOM     17  NZ  LYS A   4       9.924  -5.616  25.652  0.00  0.00    +0.219 N 
ATOM     18  HZ1 LYS A   4       9.535  -6.417  25.135  0.00  0.00    +0.199 HD
ATOM     19  HZ2 LYS A   4       9.621  -5.710  26.630  0.00  0.00    +0.199 HD
ATOM     20  HZ3 LYS A   4      10.948  -5.710  25.638  0.00  0.00    +0.199 HD
ENDBRANCH  16  17
ENDBRANCH  15  16
ENDBRANCH  14  15
ENDBRANCH  13  14
ENDBRANCH  10  13
ENDBRANCH   8  10
ENDBRANCH   5   6
BRANCH   5  21
ATOM     21  CB  SER A   3       5.251   0.636  26.699  0.00  0.00    +0.187 C 
BRANCH  21  22
ATOM     22  OG  SER A   3       4.738   0.880  25.390  0.00  0.00    -0.393 OA
ATOM     23  H   SER A   3       4.036   0.222  25.238  0.00  0.00    +0.209 HD
ENDBRANCH  21  22
ENDBRANCH   5  21
ENDBRANCH   3   5
BRANCH   1  24
ATOM     24  CA  GLN A   2       9.461  -0.657  24.565  0.00  0.00    +0.159 C 
BRANCH  24  26
ATOM     25  C   VAL A   1       8.789  -1.213  22.242  0.00  0.00    +0.231 C 
ATOM     26  N   GLN A   2       8.540  -0.584  23.436  0.00  0.00    -0.303 N 
ATOM     27  H   GLN A   2       7.673  -0.072  23.579  0.00  0.00    +0.149 HD
ATOM     28  O   VAL A   1       9.828  -1.838  22.034  0.00  0.00    -0.274 OA
BRANCH  25  29
ATOM     29  CA  VAL A   1       7.674  -1.050  21.176  0.00  0.00    +0.140 C 
BRANCH  29  30
ATOM     30  CB  VAL A   1       7.791   0.298  20.422  0.00  0.00    +0.009 C 
ATOM     31  CG2 VAL A   1       7.483   0.157  18.926  0.00  0.00    +0.009 C 
ATOM     32  CG1 VAL A   1       6.850   1.358  21.015  0.00  0.00    +0.009 C 
ENDBRANCH  29  30
BRANCH  29  33
ATOM     33  N   VAL A   1       6.367  -1.164  21.858  0.00  0.00    -0.320 NA
ATOM     34  H1  VAL A   1       6.427  -1.903  22.559  0.00  0.00    +0.119 HD
ATOM     35  H2  VAL A   1       6.233  -0.310  22.408  0.00  0.00    +0.119 HD
ENDBRANCH  29  33
ENDBRANCH  25  29
ENDBRANCH  24  26
BRANCH  24  36
ATOM     36  CB  GLN A   2      10.425   0.536  24.553  0.00  0.00    +0.041 C 
BRANCH  36  37
ATOM     37  CG  GLN A   2       9.742   1.859  24.206  0.00  0.00    +0.098 C 
BRANCH  37  38
ATOM     38  CD  GLN A   2      10.483   2.625  23.132  0.00  0.00    +0.211 C 
ATOM     39  OE1 GLN A   2      11.270   3.532  23.384  0.00  0.00    -0.276 OA
ATOM     40  NE2 GLN A   2      10.249   2.226  21.853  0.00  0.00    -0.329 N 
ATOM     41 HE21 GLN A   2       9.682   1.423  21.615  0.00  0.00    +0.145 HD
ATOM     42 HE22 GLN A   2      10.747   2.695  21.107  0.00  0.00    +0.145 HD
ENDBRANCH  37  38
ENDBRANCH  36  37
ENDBRANCH  24  36
ENDBRANCH   1  24
TORSDOF 19
ENDMDL
MODEL 3
REMARK VINA RESULT:      -6.1      2.420      4.734
REMARK  Name = VQSK-mmff94.pdb
REMARK  21 active torsions:
REMARK  status: ('A' for Active; 'I' for Inactive)
REMARK    1  A    between atoms: _1  and  _2
REMARK    2  A    between atoms: _2  and  _3
REMARK    3  A    between atoms: _2  and  _5
REMARK    4  A    between atoms: _5  and  _6
REMARK    5  A    between atoms: _5  and  _7
REMARK    6  A    between atoms: _17  and  _18
REMARK    7  A    between atoms: _18  and  _19
REMARK    8  A    between atoms: _18  and  _21
REMARK    9  A    between atoms: _21  and  _22
REMARK   10  A    between atoms: _22  and  _23
REMARK   11  A    between atoms: _34  and  _35
REMARK   12  A    between atoms: _35  and  _36
REMARK   13  A    between atoms: _35  and  _38
REMARK   14  A    between atoms: _38  and  _39
REMARK   15  A    between atoms: _45  and  _46
REMARK   16  A    between atoms: _46  and  _47
REMARK   17  A    between atoms: _46  and  _49
REMARK   18  A    between atoms: _49  and  _50
REMARK   19  A    between atoms: _50  and  _51
REMARK   20  A    between atoms: _51  and  _52
REMARK   21  A    between atoms: _52  and  _53
REMARK                            x       y       z     vdW  Elec       q    Type
REMARK                         _______ _______ _______ _____ _____    ______ ____
ROOT
ATOM      1  C   GLN A   2       6.267  -1.930  20.941  0.00  0.00    +0.234 C 
ATOM      2  O   GLN A   2       5.435  -2.355  20.140  0.00  0.00    -0.274 OA
ATOM      3  N   SER A   3       6.738  -2.694  21.976  0.00  0.00    -0.301 N 
ATOM      4  H   SER A   3       7.436  -2.343  22.625  0.00  0.00    +0.150 HD
ENDROOT
BRANCH   3   5
ATOM      5  CA  SER A   3       6.184  -4.013  22.279  0.00  0.00    +0.184 C 
BRANCH   5   6
ATOM      6  C   SER A   3       5.643  -3.966  23.718  0.00  0.00    +0.236 C 
ATOM      7  O   SER A   3       4.932  -4.861  24.183  0.00  0.00    -0.274 OA
ATOM      8  N   LYS A   4       6.037  -2.884  24.466  0.00  0.00    -0.304 N 
ATOM      9  H   LYS A   4       6.665  -2.181  24.080  0.00  0.00    +0.149 HD
BRANCH   8  10
ATOM     10  CA  LYS A   4       5.621  -2.712  25.852  0.00  0.00    +0.136 C 
BRANCH  10  11
ATOM     11  C   LYS A   4       5.285  -1.239  26.032  0.00  0.00    +0.245 C 
ATOM     12  O   LYS A   4       5.174  -0.453  25.094  0.00  0.00    -0.299 OA
ENDBRANCH  10  11
BRANCH  10  13
ATOM     13  CB  LYS A   4       6.733  -3.138  26.819  0.00  0.00    +0.030 C 
BRANCH  13  14
ATOM     14  CG  LYS A   4       6.575  -4.573  27.334  0.00  0.00    +0.007 C 
BRANCH  14  15
ATOM     15  CD  LYS A   4       7.805  -5.415  26.978  0.00  0.00    +0.051 C 
BRANCH  15  16
ATOM     16  CE  LYS A   4       8.943  -4.555  26.451  0.00  0.00    +0.127 C 
BRANCH  16  17
ATOM     17  NZ  LYS A   4       9.889  -5.413  25.697  0.00  0.00    +0.219 N 
ATOM     18  HZ1 LYS A   4      10.697  -5.683  26.276  0.00  0.00    +0.199 HD
ATOM     19  HZ2 LYS A   4      10.257  -4.927  24.869  0.00  0.00    +0.199 HD
ATOM     20  HZ3 LYS A   4       9.442  -6.280  25.370  0.00  0.00    +0.199 HD
ENDBRANCH  16  17
ENDBRANCH  15  16
ENDBRANCH  14  15
ENDBRANCH  13  14
ENDBRANCH  10  13
ENDBRANCH   8  10
ENDBRANCH   5   6
BRANCH   5  21
ATOM     21  CB  SER A   3       7.212  -5.134  22.099  0.00  0.00    +0.187 C 
BRANCH  21  22
ATOM     22  OG  SER A   3       7.834  -5.473  23.338  0.00  0.00    -0.393 OA
ATOM     23  H   SER A   3       8.056  -4.633  23.779  0.00  0.00    +0.209 HD
ENDBRANCH  21  22
ENDBRANCH   5  21
ENDBRANCH   3   5
BRANCH   1  24
ATOM     24  CA  GLN A   2       6.810  -0.490  20.876  0.00  0.00    +0.159 C 
BRANCH  24  26
ATOM     25  C   VAL A   1       7.656   0.912  22.741  0.00  0.00    +0.231 C 
ATOM     26  N   GLN A   2       7.587  -0.297  22.096  0.00  0.00    -0.303 N 
ATOM     27  H   GLN A   2       8.054  -1.115  22.482  0.00  0.00    +0.149 HD
ATOM     28  O   VAL A   1       7.106   1.922  22.302  0.00  0.00    -0.274 OA
BRANCH  25  29
ATOM     29  CA  VAL A   1       8.499   0.908  24.043  0.00  0.00    +0.140 C 
BRANCH  29  30
ATOM     30  CB  VAL A   1       9.995   1.191  23.761  0.00  0.00    +0.009 C 
ATOM     31  CG2 VAL A   1      10.311   2.692  23.744  0.00  0.00    +0.009 C 
ATOM     32  CG1 VAL A   1      10.902   0.514  24.800  0.00  0.00    +0.009 C 
ENDBRANCH  29  30
BRANCH  29  33
ATOM     33  N   VAL A   1       8.323  -0.405  24.699  0.00  0.00    -0.320 NA
ATOM     34  H1  VAL A   1       7.601  -0.926  24.200  0.00  0.00    +0.119 HD
ATOM     35  H2  VAL A   1       9.178  -0.946  24.536  0.00  0.00    +0.119 HD
ENDBRANCH  29  33
ENDBRANCH  25  29
ENDBRANCH  24  26
BRANCH  24  36
ATOM     36  CB  GLN A   2       7.694  -0.288  19.638  0.00  0.00    +0.041 C 
BRANCH  36  37
ATOM     37  CG  GLN A   2       7.190   0.821  18.713  0.00  0.00    +0.098 C 
BRANCH  37  38
ATOM     38  CD  GLN A   2       5.830   0.510  18.130  0.00  0.00    +0.211 C 
ATOM     39  OE1 GLN A   2       5.627  -0.444  17.385  0.00  0.00    -0.276 OA
ATOM     40  NE2 GLN A   2       4.820   1.340  18.507  0.00  0.00    -0.329 N 
ATOM     41 HE21 GLN A   2       4.932   2.076  19.192  0.00  0.00    +0.145 HD
ATOM     42 HE22 GLN A   2       3.889   1.149  18.160  0.00  0.00    +0.145 HD
ENDBRANCH  37  38
ENDBRANCH  36  37
ENDBRANCH  24  36
ENDBRANCH   1  24
TORSDOF 19
ENDMDL
MODEL 4
REMARK VINA RESULT:      -6.1      2.365      4.202
REMARK  Name = VQSK-mmff94.pdb
REMARK  21 active torsions:
REMARK  status: ('A' for Active; 'I' for Inactive)
REMARK    1  A    between atoms: _1  and  _2
REMARK    2  A    between atoms: _2  and  _3
REMARK    3  A    between atoms: _2  and  _5
REMARK    4  A    between atoms: _5  and  _6
REMARK    5  A    between atoms: _5  and  _7
REMARK    6  A    between atoms: _17  and  _18
REMARK    7  A    between atoms: _18  and  _19
REMARK    8  A    between atoms: _18  and  _21
REMARK    9  A    between atoms: _21  and  _22
REMARK   10  A    between atoms: _22  and  _23
REMARK   11  A    between atoms: _34  and  _35
REMARK   12  A    between atoms: _35  and  _36
REMARK   13  A    between atoms: _35  and  _38
REMARK   14  A    between atoms: _38  and  _39
REMARK   15  A    between atoms: _45  and  _46
REMARK   16  A    between atoms: _46  and  _47
REMARK   17  A    between atoms: _46  and  _49
REMARK   18  A    between atoms: _49  and  _50
REMARK   19  A    between atoms: _50  and  _51
REMARK   20  A    between atoms: _51  and  _52
REMARK   21  A    between atoms: _52  and  _53
REMARK                            x       y       z     vdW  Elec       q    Type
REMARK                         _______ _______ _______ _____ _____    ______ ____
ROOT
ATOM      1  C   GLN A   2       8.636  -0.302  21.986  0.00  0.00    +0.234 C 
ATOM      2  O   GLN A   2       9.827  -0.268  21.677  0.00  0.00    -0.274 OA
ATOM      3  N   SER A   3       8.196  -0.920  23.127  0.00  0.00    -0.301 N 
ATOM      4  H   SER A   3       7.213  -0.931  23.384  0.00  0.00    +0.150 HD
ENDROOT
BRANCH   3   5
ATOM      5  CA  SER A   3       9.093  -1.698  23.980  0.00  0.00    +0.184 C 
BRANCH   5   6
ATOM      6  C   SER A   3       8.696  -3.177  23.839  0.00  0.00    +0.236 C 
ATOM      7  O   SER A   3       9.439  -4.095  24.195  0.00  0.00    -0.274 OA
ATOM      8  N   LYS A   4       7.441  -3.409  23.329  0.00  0.00    -0.304 N 
ATOM      9  H   LYS A   4       6.824  -2.637  23.087  0.00  0.00    +0.149 HD
BRANCH   8  10
ATOM     10  CA  LYS A   4       6.917  -4.758  23.155  0.00  0.00    +0.136 C 
BRANCH  10  11
ATOM     11  C   LYS A   4       6.640  -4.934  21.670  0.00  0.00    +0.245 C 
ATOM     12  O   LYS A   4       5.847  -4.234  21.043  0.00  0.00    -0.299 OA
ENDBRANCH  10  11
BRANCH  10  13
ATOM     13  CB  LYS A   4       5.637  -4.962  23.975  0.00  0.00    +0.030 C 
BRANCH  13  14
ATOM     14  CG  LYS A   4       5.756  -4.469  25.422  0.00  0.00    +0.007 C 
BRANCH  14  15
ATOM     15  CD  LYS A   4       6.054  -5.634  26.369  0.00  0.00    +0.051 C 
BRANCH  15  16
ATOM     16  CE  LYS A   4       7.244  -5.338  27.269  0.00  0.00    +0.127 C 
BRANCH  16  17
ATOM     17  NZ  LYS A   4       8.495  -5.630  26.529  0.00  0.00    +0.219 N 
ATOM     18  HZ1 LYS A   4       9.125  -6.236  27.074  0.00  0.00    +0.199 HD
ATOM     19  HZ2 LYS A   4       9.013  -4.767  26.315  0.00  0.00    +0.199 HD
ATOM     20  HZ3 LYS A   4       8.310  -6.105  25.635  0.00  0.00    +0.199 HD
ENDBRANCH  16  17
ENDBRANCH  15  16
ENDBRANCH  14  15
ENDBRANCH  13  14
ENDBRANCH  10  13
ENDBRANCH   8  10
ENDBRANCH   5   6
BRANCH   5  21
ATOM     21  CB  SER A   3       9.053  -1.240  25.441  0.00  0.00    +0.187 C 
BRANCH  21  22
ATOM     22  OG  SER A   3       8.507  -2.251  26.288  0.00  0.00    -0.393 OA
ATOM     23  H   SER A   3       7.548  -2.270  26.118  0.00  0.00    +0.209 HD
ENDBRANCH  21  22
ENDBRANCH   5  21
ENDBRANCH   3   5
BRANCH   1  24
ATOM     24  CA  GLN A   2       7.537   0.306  21.093  0.00  0.00    +0.159 C 
BRANCH  24  26
ATOM     25  C   VAL A   1       7.097   2.432  22.293  0.00  0.00    +0.231 C 
ATOM     26  N   GLN A   2       7.654   1.752  21.239  0.00  0.00    -0.303 N 
ATOM     27  H   GLN A   2       8.206   2.245  20.541  0.00  0.00    +0.149 HD
ATOM     28  O   VAL A   1       6.422   1.869  23.154  0.00  0.00    -0.274 OA
BRANCH  25  29
ATOM     29  CA  VAL A   1       7.363   3.961  22.295  0.00  0.00    +0.140 C 
BRANCH  29  30
ATOM     30  CB  VAL A   1       8.194   4.399  23.526  0.00  0.00    +0.009 C 
ATOM     31  CG2 VAL A   1       9.404   3.489  23.767  0.00  0.00    +0.009 C 
ATOM     32  CG1 VAL A   1       8.693   5.845  23.383  0.00  0.00    +0.009 C 
ENDBRANCH  29  30
BRANCH  29  33
ATOM     33  N   VAL A   1       6.057   4.653  22.264  0.00  0.00    -0.320 NA
ATOM     34  H1  VAL A   1       6.139   5.481  21.673  0.00  0.00    +0.119 HD
ATOM     35  H2  VAL A   1       5.401   4.050  21.758  0.00  0.00    +0.119 HD
ENDBRANCH  29  33
ENDBRANCH  25  29
ENDBRANCH  24  26
BRANCH  24  36
ATOM     36  CB  GLN A   2       7.728  -0.104  19.627  0.00  0.00    +0.041 C 
BRANCH  36  37
ATOM     37  CG  GLN A   2       6.409  -0.346  18.892  0.00  0.00    +0.098 C 
BRANCH  37  38
ATOM     38  CD  GLN A   2       5.894   0.902  18.210  0.00  0.00    +0.211 C 
ATOM     39  OE1 GLN A   2       6.369   1.334  17.164  0.00  0.00    -0.276 OA
ATOM     40  NE2 GLN A   2       4.838   1.512  18.812  0.00  0.00    -0.329 N 
ATOM     41 HE21 GLN A   2       4.362   1.132  19.620  0.00  0.00    +0.145 HD
ATOM     42 HE22 GLN A   2       4.446   2.335  18.372  0.00  0.00    +0.145 HD
ENDBRANCH  37  38
ENDBRANCH  36  37
ENDBRANCH  24  36
ENDBRANCH   1  24
TORSDOF 19
ENDMDL
MODEL 5
REMARK VINA RESULT:      -6.1      2.884      6.104
REMARK  Name = VQSK-mmff94.pdb
REMARK  21 active torsions:
REMARK  status: ('A' for Active; 'I' for Inactive)
REMARK    1  A    between atoms: _1  and  _2
REMARK    2  A    between atoms: _2  and  _3
REMARK    3  A    between atoms: _2  and  _5
REMARK    4  A    between atoms: _5  and  _6
REMARK    5  A    between atoms: _5  and  _7
REMARK    6  A    between atoms: _17  and  _18
REMARK    7  A    between atoms: _18  and  _19
REMARK    8  A    between atoms: _18  and  _21
REMARK    9  A    between atoms: _21  and  _22
REMARK   10  A    between atoms: _22  and  _23
REMARK   11  A    between atoms: _34  and  _35
REMARK   12  A    between atoms: _35  and  _36
REMARK   13  A    between atoms: _35  and  _38
REMARK   14  A    between atoms: _38  and  _39
REMARK   15  A    between atoms: _45  and  _46
REMARK   16  A    between atoms: _46  and  _47
REMARK   17  A    between atoms: _46  and  _49
REMARK   18  A    between atoms: _49  and  _50
REMARK   19  A    between atoms: _50  and  _51
REMARK   20  A    between atoms: _51  and  _52
REMARK   21  A    between atoms: _52  and  _53
REMARK                            x       y       z     vdW  Elec       q    Type
REMARK                         _______ _______ _______ _____ _____    ______ ____
ROOT
ATOM      1  C   GLN A   2       7.883   0.855  21.622  0.00  0.00    +0.234 C 
ATOM      2  O   GLN A   2       8.781   1.670  21.835  0.00  0.00    -0.274 OA
ATOM      3  N   SER A   3       6.653   0.955  22.217  0.00  0.00    -0.301 N 
ATOM      4  H   SER A   3       5.911   0.288  22.026  0.00  0.00    +0.150 HD
ENDROOT
BRANCH   3   5
ATOM      5  CA  SER A   3       6.370   1.954  23.247  0.00  0.00    +0.184 C 
BRANCH   5   6
ATOM      6  C   SER A   3       5.932   1.199  24.514  0.00  0.00    +0.236 C 
ATOM      7  O   SER A   3       4.827   1.373  25.034  0.00  0.00    -0.274 OA
ATOM      8  N   LYS A   4       6.835   0.286  25.004  0.00  0.00    -0.304 N 
ATOM      9  H   LYS A   4       7.721   0.122  24.531  0.00  0.00    +0.149 HD
BRANCH   8  10
ATOM     10  CA  LYS A   4       6.553  -0.518  26.185  0.00  0.00    +0.136 C 
BRANCH  10  11
ATOM     11  C   LYS A   4       7.397   0.049  27.316  0.00  0.00    +0.245 C 
ATOM     12  O   LYS A   4       6.919   0.606  28.302  0.00  0.00    -0.299 OA
ENDBRANCH  10  11
BRANCH  10  13
ATOM     13  CB  LYS A   4       6.892  -1.995  25.941  0.00  0.00    +0.030 C 
BRANCH  13  14
ATOM     14  CG  LYS A   4       8.371  -2.325  26.167  0.00  0.00    +0.007 C 
BRANCH  14  15
ATOM     15  CD  LYS A   4       8.573  -3.836  26.314  0.00  0.00    +0.051 C 
BRANCH  15  16
ATOM     16  CE  LYS A   4       9.574  -4.373  25.303  0.00  0.00    +0.127 C 
BRANCH  16  17
ATOM     17  NZ  LYS A   4       9.922  -5.769  25.660  0.00  0.00    +0.219 N 
ATOM     18  HZ1 LYS A   4      10.894  -5.842  25.993  0.00  0.00    +0.199 HD
ATOM     19  HZ2 LYS A   4       9.830  -6.397  24.851  0.00  0.00    +0.199 HD
ATOM     20  HZ3 LYS A   4       9.315  -6.137  26.405  0.00  0.00    +0.199 HD
ENDBRANCH  16  17
ENDBRANCH  15  16
ENDBRANCH  14  15
ENDBRANCH  13  14
ENDBRANCH  10  13
ENDBRANCH   8  10
ENDBRANCH   5   6
BRANCH   5  21
ATOM     21  CB  SER A   3       5.314   2.969  22.802  0.00  0.00    +0.187 C 
BRANCH  21  22
ATOM     22  OG  SER A   3       4.842   2.684  21.485  0.00  0.00    -0.393 OA
ATOM     23  H   SER A   3       4.868   3.524  20.991  0.00  0.00    +0.209 HD
ENDBRANCH  21  22
ENDBRANCH   5  21
ENDBRANCH   3   5
BRANCH   1  24
ATOM     24  CA  GLN A   2       8.083  -0.369  20.709  0.00  0.00    +0.159 C 
BRANCH  24  26
ATOM     25  C   VAL A   1       7.546  -2.364  22.082  0.00  0.00    +0.231 C 
ATOM     26  N   GLN A   2       7.162  -1.389  21.197  0.00  0.00    -0.303 N 
ATOM     27  H   GLN A   2       6.196  -1.330  20.881  0.00  0.00    +0.149 HD
ATOM     28  O   VAL A   1       8.705  -2.468  22.483  0.00  0.00    -0.274 OA
BRANCH  25  29
ATOM     29  CA  VAL A   1       6.415  -3.334  22.513  0.00  0.00    +0.140 C 
BRANCH  29  30
ATOM     30  CB  VAL A   1       6.967  -4.730  22.897  0.00  0.00    +0.009 C 
ATOM     31  CG2 VAL A   1       6.160  -5.385  24.024  0.00  0.00    +0.009 C 
ATOM     32  CG1 VAL A   1       6.980  -5.681  21.690  0.00  0.00    +0.009 C 
ENDBRANCH  29  30
BRANCH  29  33
ATOM     33  N   VAL A   1       5.449  -3.436  21.399  0.00  0.00    -0.320 NA
ATOM     34  H1  VAL A   1       4.508  -3.294  21.767  0.00  0.00    +0.119 HD
ATOM     35  H2  VAL A   1       5.600  -2.628  20.786  0.00  0.00    +0.119 HD
ENDBRANCH  29  33
ENDBRANCH  25  29
ENDBRANCH  24  26
BRANCH  24  36
ATOM     36  CB  GLN A   2       7.778  -0.023  19.246  0.00  0.00    +0.041 C 
BRANCH  36  37
ATOM     37  CG  GLN A   2       6.297  -0.157  18.891  0.00  0.00    +0.098 C 
BRANCH  37  38
ATOM     38  CD  GLN A   2       5.761   1.072  18.191  0.00  0.00    +0.211 C 
ATOM     39  OE1 GLN A   2       6.217   1.487  17.130  0.00  0.00    -0.276 OA
ATOM     40  NE2 GLN A   2       4.706   1.684  18.795  0.00  0.00    -0.329 N 
ATOM     41 HE21 GLN A   2       4.245   1.316  19.616  0.00  0.00    +0.145 HD
ATOM     42 HE22 GLN A   2       4.300   2.494  18.343  0.00  0.00    +0.145 HD
ENDBRANCH  37  38
ENDBRANCH  36  37
ENDBRANCH  24  36
ENDBRANCH   1  24
TORSDOF 19
ENDMDL
MODEL 6
REMARK VINA RESULT:      -6.1      2.090      4.646
REMARK  Name = VQSK-mmff94.pdb
REMARK  21 active torsions:
REMARK  status: ('A' for Active; 'I' for Inactive)
REMARK    1  A    between atoms: _1  and  _2
REMARK    2  A    between atoms: _2  and  _3
REMARK    3  A    between atoms: _2  and  _5
REMARK    4  A    between atoms: _5  and  _6
REMARK    5  A    between atoms: _5  and  _7
REMARK    6  A    between atoms: _17  and  _18
REMARK    7  A    between atoms: _18  and  _19
REMARK    8  A    between atoms: _18  and  _21
REMARK    9  A    between atoms: _21  and  _22
REMARK   10  A    between atoms: _22  and  _23
REMARK   11  A    between atoms: _34  and  _35
REMARK   12  A    between atoms: _35  and  _36
REMARK   13  A    between atoms: _35  and  _38
REMARK   14  A    between atoms: _38  and  _39
REMARK   15  A    between atoms: _45  and  _46
REMARK   16  A    between atoms: _46  and  _47
REMARK   17  A    between atoms: _46  and  _49
REMARK   18  A    between atoms: _49  and  _50
REMARK   19  A    between atoms: _50  and  _51
REMARK   20  A    between atoms: _51  and  _52
REMARK   21  A    between atoms: _52  and  _53
REMARK                            x       y       z     vdW  Elec       q    Type
REMARK                         _______ _______ _______ _____ _____    ______ ____
ROOT
ATOM      1  C   GLN A   2       7.176  -2.799  22.386  0.00  0.00    +0.234 C 
ATOM      2  O   GLN A   2       6.888  -3.783  21.704  0.00  0.00    -0.274 OA
ATOM      3  N   SER A   3       7.729  -2.915  23.634  0.00  0.00    -0.301 N 
ATOM      4  H   SER A   3       7.978  -2.099  24.186  0.00  0.00    +0.150 HD
ENDROOT
BRANCH   3   5
ATOM      5  CA  SER A   3       7.885  -4.210  24.294  0.00  0.00    +0.184 C 
BRANCH   5   6
ATOM      6  C   SER A   3       6.773  -4.328  25.350  0.00  0.00    +0.236 C 
ATOM      7  O   SER A   3       5.903  -3.464  25.488  0.00  0.00    -0.274 OA
ATOM      8  N   LYS A   4       6.785  -5.479  26.100  0.00  0.00    -0.304 N 
ATOM      9  H   LYS A   4       7.482  -6.203  25.936  0.00  0.00    +0.149 HD
BRANCH   8  10
ATOM     10  CA  LYS A   4       5.783  -5.741  27.126  0.00  0.00    +0.136 C 
BRANCH  10  11
ATOM     11  C   LYS A   4       6.535  -6.179  28.374  0.00  0.00    +0.245 C 
ATOM     12  O   LYS A   4       6.347  -7.258  28.931  0.00  0.00    -0.299 OA
ENDBRANCH  10  11
BRANCH  10  13
ATOM     13  CB  LYS A   4       4.802  -6.829  26.672  0.00  0.00    +0.030 C 
BRANCH  13  14
ATOM     14  CG  LYS A   4       3.724  -6.315  25.711  0.00  0.00    +0.007 C 
BRANCH  14  15
ATOM     15  CD  LYS A   4       3.875  -6.963  24.331  0.00  0.00    +0.051 C 
BRANCH  15  16
ATOM     16  CE  LYS A   4       4.109  -5.926  23.244  0.00  0.00    +0.127 C 
BRANCH  16  17
ATOM     17  NZ  LYS A   4       5.337  -6.281  22.492  0.00  0.00    +0.219 N 
ATOM     18  HZ1 LYS A   4       5.122  -6.536  21.517  0.00  0.00    +0.199 HD
ATOM     19  HZ2 LYS A   4       5.816  -7.085  22.917  0.00  0.00    +0.199 HD
ATOM     20  HZ3 LYS A   4       6.009  -5.503  22.464  0.00  0.00    +0.199 HD
ENDBRANCH  16  17
ENDBRANCH  15  16
ENDBRANCH  14  15
ENDBRANCH  13  14
ENDBRANCH  10  13
ENDBRANCH   8  10
ENDBRANCH   5   6
BRANCH   5  21
ATOM     21  CB  SER A   3       9.274  -4.385  24.916  0.00  0.00    +0.187 C 
BRANCH  21  22
ATOM     22  OG  SER A   3       9.703  -5.745  24.859  0.00  0.00    -0.393 OA
ATOM     23  H   SER A   3       9.707  -5.997  23.918  0.00  0.00    +0.209 HD
ENDBRANCH  21  22
ENDBRANCH   5  21
ENDBRANCH   3   5
BRANCH   1  24
ATOM     24  CA  GLN A   2       6.895  -1.361  21.914  0.00  0.00    +0.159 C 
BRANCH  24  26
ATOM     25  C   VAL A   1       8.366   0.517  22.597  0.00  0.00    +0.231 C 
ATOM     26  N   GLN A   2       8.180  -0.671  21.936  0.00  0.00    -0.303 N 
ATOM     27  H   GLN A   2       8.959  -1.129  21.467  0.00  0.00    +0.149 HD
ATOM     28  O   VAL A   1       7.447   1.100  23.171  0.00  0.00    -0.274 OA
BRANCH  25  29
ATOM     29  CA  VAL A   1       9.812   1.075  22.538  0.00  0.00    +0.140 C 
BRANCH  29  30
ATOM     30  CB  VAL A   1      10.251   1.683  23.893  0.00  0.00    +0.009 C 
ATOM     31  CG2 VAL A   1      11.134   0.726  24.703  0.00  0.00    +0.009 C 
ATOM     32  CG1 VAL A   1      11.014   3.002  23.698  0.00  0.00    +0.009 C 
ENDBRANCH  29  30
BRANCH  29  33
ATOM     33  N   VAL A   1       9.870   2.086  21.461  0.00  0.00    -0.320 NA
ATOM     34  H1  VAL A   1      10.800   2.063  21.039  0.00  0.00    +0.119 HD
ATOM     35  H2  VAL A   1       9.249   1.770  20.709  0.00  0.00    +0.119 HD
ENDBRANCH  29  33
ENDBRANCH  25  29
ENDBRANCH  24  26
BRANCH  24  36
ATOM     36  CB  GLN A   2       6.302  -1.350  20.498  0.00  0.00    +0.041 C 
BRANCH  36  37
ATOM     37  CG  GLN A   2       6.566  -0.046  19.744  0.00  0.00    +0.098 C 
BRANCH  37  38
ATOM     38  CD  GLN A   2       5.911  -0.027  18.381  0.00  0.00    +0.211 C 
ATOM     39  OE1 GLN A   2       5.992  -0.962  17.591  0.00  0.00    -0.276 OA
ATOM     40  NE2 GLN A   2       5.189   1.088  18.086  0.00  0.00    -0.329 N 
ATOM     41 HE21 GLN A   2       5.023   1.834  18.749  0.00  0.00    +0.145 HD
ATOM     42 HE22 GLN A   2       4.712   1.127  17.195  0.00  0.00    +0.145 HD
ENDBRANCH  37  38
ENDBRANCH  36  37
ENDBRANCH  24  36
ENDBRANCH   1  24
TORSDOF 19
ENDMDL
MODEL 7
REMARK VINA RESULT:      -6.0      2.085      4.155
REMARK  Name = VQSK-mmff94.pdb
REMARK  21 active torsions:
REMARK  status: ('A' for Active; 'I' for Inactive)
REMARK    1  A    between atoms: _1  and  _2
REMARK    2  A    between atoms: _2  and  _3
REMARK    3  A    between atoms: _2  and  _5
REMARK    4  A    between atoms: _5  and  _6
REMARK    5  A    between atoms: _5  and  _7
REMARK    6  A    between atoms: _17  and  _18
REMARK    7  A    between atoms: _18  and  _19
REMARK    8  A    between atoms: _18  and  _21
REMARK    9  A    between atoms: _21  and  _22
REMARK   10  A    between atoms: _22  and  _23
REMARK   11  A    between atoms: _34  and  _35
REMARK   12  A    between atoms: _35  and  _36
REMARK   13  A    between atoms: _35  and  _38
REMARK   14  A    between atoms: _38  and  _39
REMARK   15  A    between atoms: _45  and  _46
REMARK   16  A    between atoms: _46  and  _47
REMARK   17  A    between atoms: _46  and  _49
REMARK   18  A    between atoms: _49  and  _50
REMARK   19  A    between atoms: _50  and  _51
REMARK   20  A    between atoms: _51  and  _52
REMARK   21  A    between atoms: _52  and  _53
REMARK                            x       y       z     vdW  Elec       q    Type
REMARK                         _______ _______ _______ _____ _____    ______ ____
ROOT
ATOM      1  C   GLN A   2       8.074  -1.469  21.696  0.00  0.00    +0.234 C 
ATOM      2  O   GLN A   2       9.280  -1.674  21.562  0.00  0.00    -0.274 OA
ATOM      3  N   SER A   3       7.231  -2.405  22.234  0.00  0.00    -0.301 N 
ATOM      4  H   SER A   3       6.239  -2.224  22.356  0.00  0.00    +0.150 HD
ENDROOT
BRANCH   3   5
ATOM      5  CA  SER A   3       7.683  -3.758  22.557  0.00  0.00    +0.184 C 
BRANCH   5   6
ATOM      6  C   SER A   3       6.500  -4.710  22.311  0.00  0.00    +0.236 C 
ATOM      7  O   SER A   3       6.247  -5.170  21.194  0.00  0.00    -0.274 OA
ATOM      8  N   LYS A   4       5.769  -5.050  23.423  0.00  0.00    -0.304 N 
ATOM      9  H   LYS A   4       6.024  -4.698  24.344  0.00  0.00    +0.149 HD
BRANCH   8  10
ATOM     10  CA  LYS A   4       4.631  -5.957  23.351  0.00  0.00    +0.136 C 
BRANCH  10  11
ATOM     11  C   LYS A   4       3.385  -5.093  23.239  0.00  0.00    +0.245 C 
ATOM     12  O   LYS A   4       2.296  -5.523  22.862  0.00  0.00    -0.299 OA
ENDBRANCH  10  11
BRANCH  10  13
ATOM     13  CB  LYS A   4       4.562  -6.855  24.593  0.00  0.00    +0.030 C 
BRANCH  13  14
ATOM     14  CG  LYS A   4       4.372  -6.075  25.898  0.00  0.00    +0.007 C 
BRANCH  14  15
ATOM     15  CD  LYS A   4       5.485  -6.409  26.896  0.00  0.00    +0.051 C 
BRANCH  15  16
ATOM     16  CE  LYS A   4       6.466  -5.258  27.051  0.00  0.00    +0.127 C 
BRANCH  16  17
ATOM     17  NZ  LYS A   4       7.845  -5.801  27.105  0.00  0.00    +0.219 N 
ATOM     18  HZ1 LYS A   4       8.254  -5.703  28.045  0.00  0.00    +0.199 HD
ATOM     19  HZ2 LYS A   4       8.467  -5.309  26.450  0.00  0.00    +0.199 HD
ATOM     20  HZ3 LYS A   4       7.873  -6.800  26.861  0.00  0.00    +0.199 HD
ENDBRANCH  16  17
ENDBRANCH  15  16
ENDBRANCH  14  15
ENDBRANCH  13  14
ENDBRANCH  10  13
ENDBRANCH   8  10
ENDBRANCH   5   6
BRANCH   5  21
ATOM     21  CB  SER A   3       8.209  -3.871  23.991  0.00  0.00    +0.187 C 
BRANCH  21  22
ATOM     22  OG  SER A   3       8.825  -5.138  24.220  0.00  0.00    -0.393 OA
ATOM     23  H   SER A   3       9.299  -5.069  25.068  0.00  0.00    +0.209 HD
ENDBRANCH  21  22
ENDBRANCH   5  21
ENDBRANCH   3   5
BRANCH   1  24
ATOM     24  CA  GLN A   2       7.405  -0.164  21.225  0.00  0.00    +0.159 C 
BRANCH  24  26
ATOM     25  C   VAL A   1       7.922   1.187  23.242  0.00  0.00    +0.231 C 
ATOM     26  N   GLN A   2       8.107   0.917  21.909  0.00  0.00    -0.303 N 
ATOM     27  H   GLN A   2       8.780   1.450  21.363  0.00  0.00    +0.149 HD
ATOM     28  O   VAL A   1       7.115   0.565  23.931  0.00  0.00    -0.274 OA
BRANCH  25  29
ATOM     29  CA  VAL A   1       8.787   2.350  23.796  0.00  0.00    +0.140 C 
BRANCH  29  30
ATOM     30  CB  VAL A   1      10.278   2.194  23.409  0.00  0.00    +0.009 C 
ATOM     31  CG2 VAL A   1      11.043   3.521  23.491  0.00  0.00    +0.009 C 
ATOM     32  CG1 VAL A   1      10.988   1.166  24.303  0.00  0.00    +0.009 C 
ENDBRANCH  29  30
BRANCH  29  33
ATOM     33  N   VAL A   1       8.622   2.383  25.265  0.00  0.00    -0.320 NA
ATOM     34  H1  VAL A   1       9.528   2.201  25.700  0.00  0.00    +0.119 HD
ATOM     35  H2  VAL A   1       8.409   3.350  25.529  0.00  0.00    +0.119 HD
ENDBRANCH  29  33
ENDBRANCH  25  29
ENDBRANCH  24  26
BRANCH  24  36
ATOM     36  CB  GLN A   2       7.519  -0.002  19.704  0.00  0.00    +0.041 C 
BRANCH  36  37
ATOM     37  CG  GLN A   2       6.189  -0.200  18.976  0.00  0.00    +0.098 C 
BRANCH  37  38
ATOM     38  CD  GLN A   2       5.751   1.042  18.231  0.00  0.00    +0.211 C 
ATOM     39  OE1 GLN A   2       6.264   1.403  17.177  0.00  0.00    -0.276 OA
ATOM     40  NE2 GLN A   2       4.719   1.733  18.788  0.00  0.00    -0.329 N 
ATOM     41 HE21 GLN A   2       4.211   1.413  19.602  0.00  0.00    +0.145 HD
ATOM     42 HE22 GLN A   2       4.377   2.554  18.305  0.00  0.00    +0.145 HD
ENDBRANCH  37  38
ENDBRANCH  36  37
ENDBRANCH  24  36
ENDBRANCH   1  24
TORSDOF 19
ENDMDL
MODEL 8
REMARK VINA RESULT:      -6.0      2.829      5.481
REMARK  Name = VQSK-mmff94.pdb
REMARK  21 active torsions:
REMARK  status: ('A' for Active; 'I' for Inactive)
REMARK    1  A    between atoms: _1  and  _2
REMARK    2  A    between atoms: _2  and  _3
REMARK    3  A    between atoms: _2  and  _5
REMARK    4  A    between atoms: _5  and  _6
REMARK    5  A    between atoms: _5  and  _7
REMARK    6  A    between atoms: _17  and  _18
REMARK    7  A    between atoms: _18  and  _19
REMARK    8  A    between atoms: _18  and  _21
REMARK    9  A    between atoms: _21  and  _22
REMARK   10  A    between atoms: _22  and  _23
REMARK   11  A    between atoms: _34  and  _35
REMARK   12  A    between atoms: _35  and  _36
REMARK   13  A    between atoms: _35  and  _38
REMARK   14  A    between atoms: _38  and  _39
REMARK   15  A    between atoms: _45  and  _46
REMARK   16  A    between atoms: _46  and  _47
REMARK   17  A    between atoms: _46  and  _49
REMARK   18  A    between atoms: _49  and  _50
REMARK   19  A    between atoms: _50  and  _51
REMARK   20  A    between atoms: _51  and  _52
REMARK   21  A    between atoms: _52  and  _53
REMARK                            x       y       z     vdW  Elec       q    Type
REMARK                         _______ _______ _______ _____ _____    ______ ____
ROOT
ATOM      1  C   GLN A   2       6.747   1.308  21.039  0.00  0.00    +0.234 C 
ATOM      2  O   GLN A   2       5.858   2.086  20.691  0.00  0.00    -0.274 OA
ATOM      3  N   SER A   3       6.822   0.027  20.561  0.00  0.00    -0.301 N 
ATOM      4  H   SER A   3       7.567  -0.605  20.841  0.00  0.00    +0.150 HD
ENDROOT
BRANCH   3   5
ATOM      5  CA  SER A   3       5.777  -0.546  19.714  0.00  0.00    +0.184 C 
BRANCH   5   6
ATOM      6  C   SER A   3       5.700  -2.049  20.028  0.00  0.00    +0.236 C 
ATOM      7  O   SER A   3       5.450  -2.891  19.162  0.00  0.00    -0.274 OA
ATOM      8  N   LYS A   4       5.971  -2.399  21.329  0.00  0.00    -0.304 N 
ATOM      9  H   LYS A   4       6.225  -1.693  22.018  0.00  0.00    +0.149 HD
BRANCH   8  10
ATOM     10  CA  LYS A   4       5.957  -3.786  21.774  0.00  0.00    +0.136 C 
BRANCH  10  11
ATOM     11  C   LYS A   4       4.890  -3.892  22.853  0.00  0.00    +0.245 C 
ATOM     12  O   LYS A   4       3.940  -4.670  22.789  0.00  0.00    -0.299 OA
ENDBRANCH  10  11
BRANCH  10  13
ATOM     13  CB  LYS A   4       7.327  -4.204  22.321  0.00  0.00    +0.030 C 
BRANCH  13  14
ATOM     14  CG  LYS A   4       7.544  -3.810  23.787  0.00  0.00    +0.007 C 
BRANCH  14  15
ATOM     15  CD  LYS A   4       8.108  -4.988  24.587  0.00  0.00    +0.051 C 
BRANCH  15  16
ATOM     16  CE  LYS A   4       9.136  -4.532  25.611  0.00  0.00    +0.127 C 
BRANCH  16  17
ATOM     17  NZ  LYS A   4      10.269  -5.488  25.618  0.00  0.00    +0.219 N 
ATOM     18  HZ1 LYS A   4      11.175  -4.999  25.644  0.00  0.00    +0.199 HD
ATOM     19  HZ2 LYS A   4      10.266  -6.079  24.776  0.00  0.00    +0.199 HD
ATOM     20  HZ3 LYS A   4      10.236  -6.116  26.433  0.00  0.00    +0.199 HD
ENDBRANCH  16  17
ENDBRANCH  15  16
ENDBRANCH  14  15
ENDBRANCH  13  14
ENDBRANCH  10  13
ENDBRANCH   8  10
ENDBRANCH   5   6
BRANCH   5  21
ATOM     21  CB  SER A   3       6.028  -0.293  18.225  0.00  0.00    +0.187 C 
BRANCH  21  22
ATOM     22  OG  SER A   3       5.503   0.969  17.815  0.00  0.00    -0.393 OA
ATOM     23  H   SER A   3       6.236   1.454  17.395  0.00  0.00    +0.209 HD
ENDBRANCH  21  22
ENDBRANCH   5  21
ENDBRANCH   3   5
BRANCH   1  24
ATOM     24  CA  GLN A   2       7.817   1.695  22.077  0.00  0.00    +0.159 C 
BRANCH  24  26
ATOM     25  C   VAL A   1       7.331   1.689  24.510  0.00  0.00    +0.231 C 
ATOM     26  N   GLN A   2       7.439   1.023  23.315  0.00  0.00    -0.303 N 
ATOM     27  H   GLN A   2       7.217   0.032  23.254  0.00  0.00    +0.149 HD
ATOM     28  O   VAL A   1       7.594   2.886  24.620  0.00  0.00    -0.274 OA
BRANCH  25  29
ATOM     29  CA  VAL A   1       6.879   0.810  25.706  0.00  0.00    +0.140 C 
BRANCH  29  30
ATOM     30  CB  VAL A   1       7.540  -0.590  25.674  0.00  0.00    +0.009 C 
ATOM     31  CG2 VAL A   1       9.012  -0.549  26.102  0.00  0.00    +0.009 C 
ATOM     32  CG1 VAL A   1       6.797  -1.584  26.580  0.00  0.00    +0.009 C 
ENDBRANCH  29  30
BRANCH  29  33
ATOM     33  N   VAL A   1       5.405   0.701  25.663  0.00  0.00    -0.320 NA
ATOM     34  H1  VAL A   1       5.156  -0.243  25.366  0.00  0.00    +0.119 HD
ATOM     35  H2  VAL A   1       5.065   0.755  26.628  0.00  0.00    +0.119 HD
ENDBRANCH  29  33
ENDBRANCH  25  29
ENDBRANCH  24  26
BRANCH  24  36
ATOM     36  CB  GLN A   2       9.213   1.246  21.625  0.00  0.00    +0.041 C 
BRANCH  36  37
ATOM     37  CG  GLN A   2       9.913   0.341  22.640  0.00  0.00    +0.098 C 
BRANCH  37  38
ATOM     38  CD  GLN A   2       9.774  -1.125  22.294  0.00  0.00    +0.211 C 
ATOM     39  OE1 GLN A   2       9.077  -1.528  21.368  0.00  0.00    -0.276 OA
ATOM     40  NE2 GLN A   2      10.500  -1.984  23.059  0.00  0.00    -0.329 N 
ATOM     41 HE21 GLN A   2      11.156  -1.681  23.767  0.00  0.00    +0.145 HD
ATOM     42 HE22 GLN A   2      10.456  -2.972  22.842  0.00  0.00    +0.145 HD
ENDBRANCH  37  38
ENDBRANCH  36  37
ENDBRANCH  24  36
ENDBRANCH   1  24
TORSDOF 19
ENDMDL
MODEL 9
REMARK VINA RESULT:      -6.0      2.461      5.166
REMARK  Name = VQSK-mmff94.pdb
REMARK  21 active torsions:
REMARK  status: ('A' for Active; 'I' for Inactive)
REMARK    1  A    between atoms: _1  and  _2
REMARK    2  A    between atoms: _2  and  _3
REMARK    3  A    between atoms: _2  and  _5
REMARK    4  A    between atoms: _5  and  _6
REMARK    5  A    between atoms: _5  and  _7
REMARK    6  A    between atoms: _17  and  _18
REMARK    7  A    between atoms: _18  and  _19
REMARK    8  A    between atoms: _18  and  _21
REMARK    9  A    between atoms: _21  and  _22
REMARK   10  A    between atoms: _22  and  _23
REMARK   11  A    between atoms: _34  and  _35
REMARK   12  A    between atoms: _35  and  _36
REMARK   13  A    between atoms: _35  and  _38
REMARK   14  A    between atoms: _38  and  _39
REMARK   15  A    between atoms: _45  and  _46
REMARK   16  A    between atoms: _46  and  _47
REMARK   17  A    between atoms: _46  and  _49
REMARK   18  A    between atoms: _49  and  _50
REMARK   19  A    between atoms: _50  and  _51
REMARK   20  A    between atoms: _51  and  _52
REMARK   21  A    between atoms: _52  and  _53
REMARK                            x       y       z     vdW  Elec       q    Type
REMARK                         _______ _______ _______ _____ _____    ______ ____
ROOT
ATOM      1  C   GLN A   2       8.444  -0.312  22.024  0.00  0.00    +0.234 C 
ATOM      2  O   GLN A   2       9.365  -1.006  21.591  0.00  0.00    -0.274 OA
ATOM      3  N   SER A   3       8.160  -0.231  23.361  0.00  0.00    -0.301 N 
ATOM      4  H   SER A   3       7.408   0.356  23.712  0.00  0.00    +0.150 HD
ENDROOT
BRANCH   3   5
ATOM      5  CA  SER A   3       8.840  -1.067  24.349  0.00  0.00    +0.184 C 
BRANCH   5   6
ATOM      6  C   SER A   3       7.777  -1.967  25.001  0.00  0.00    +0.236 C 
ATOM      7  O   SER A   3       6.646  -1.558  25.274  0.00  0.00    -0.274 OA
ATOM      8  N   LYS A   4       8.155  -3.270  25.220  0.00  0.00    -0.304 N 
ATOM      9  H   LYS A   4       9.077  -3.601  24.940  0.00  0.00    +0.149 HD
BRANCH   8  10
ATOM     10  CA  LYS A   4       7.250  -4.247  25.811  0.00  0.00    +0.136 C 
BRANCH  10  11
ATOM     11  C   LYS A   4       8.060  -5.040  26.826  0.00  0.00    +0.245 C 
ATOM     12  O   LYS A   4       7.550  -5.763  27.679  0.00  0.00    -0.299 OA
ENDBRANCH  10  11
BRANCH  10  13
ATOM     13  CB  LYS A   4       6.662  -5.174  24.740  0.00  0.00    +0.030 C 
BRANCH  13  14
ATOM     14  CG  LYS A   4       7.442  -5.151  23.421  0.00  0.00    +0.007 C 
BRANCH  14  15
ATOM     15  CD  LYS A   4       6.507  -4.852  22.244  0.00  0.00    +0.051 C 
BRANCH  15  16
ATOM     16  CE  LYS A   4       6.633  -3.410  21.778  0.00  0.00    +0.127 C 
BRANCH  16  17
ATOM     17  NZ  LYS A   4       5.559  -2.603  22.406  0.00  0.00    +0.219 N 
ATOM     18  HZ1 LYS A   4       5.217  -1.868  21.769  0.00  0.00    +0.199 HD
ATOM     19  HZ2 LYS A   4       5.893  -2.134  23.259  0.00  0.00    +0.199 HD
ATOM     20  HZ3 LYS A   4       4.750  -3.180  22.670  0.00  0.00    +0.199 HD
ENDBRANCH  16  17
ENDBRANCH  15  16
ENDBRANCH  14  15
ENDBRANCH  13  14
ENDBRANCH  10  13
ENDBRANCH   8  10
ENDBRANCH   5   6
BRANCH   5  21
ATOM     21  CB  SER A   3       9.595  -0.239  25.393  0.00  0.00    +0.187 C 
BRANCH  21  22
ATOM     22  OG  SER A   3       9.151  -0.539  26.716  0.00  0.00    -0.393 OA
ATOM     23  H   SER A   3       8.180  -0.453  26.711  0.00  0.00    +0.209 HD
ENDBRANCH  21  22
ENDBRANCH   5  21
ENDBRANCH   3   5
BRANCH   1  24
ATOM     24  CA  GLN A   2       7.507   0.482  21.094  0.00  0.00    +0.159 C 
BRANCH  24  26
ATOM     25  C   VAL A   1       7.187   2.701  22.157  0.00  0.00    +0.231 C 
ATOM     26  N   GLN A   2       7.855   1.886  21.277  0.00  0.00    -0.303 N 
ATOM     27  H   GLN A   2       8.649   2.239  20.747  0.00  0.00    +0.149 HD
ATOM     28  O   VAL A   1       6.222   2.308  22.811  0.00  0.00    -0.274 OA
BRANCH  25  29
ATOM     29  CA  VAL A   1       7.728   4.152  22.239  0.00  0.00    +0.140 C 
BRANCH  29  30
ATOM     30  CB  VAL A   1       8.346   4.459  23.626  0.00  0.00    +0.009 C 
ATOM     31  CG2 VAL A   1       9.345   3.383  24.070  0.00  0.00    +0.009 C 
ATOM     32  CG1 VAL A   1       9.059   5.820  23.637  0.00  0.00    +0.009 C 
ENDBRANCH  29  30
BRANCH  29  33
ATOM     33  N   VAL A   1       6.612   5.075  21.941  0.00  0.00    -0.320 NA
ATOM     34  H1  VAL A   1       6.251   4.861  21.011  0.00  0.00    +0.119 HD
ATOM     35  H2  VAL A   1       5.839   4.835  22.570  0.00  0.00    +0.119 HD
ENDBRANCH  29  33
ENDBRANCH  25  29
ENDBRANCH  24  26
BRANCH  24  36
ATOM     36  CB  GLN A   2       7.699   0.066  19.629  0.00  0.00    +0.041 C 
BRANCH  36  37
ATOM     37  CG  GLN A   2       6.382  -0.199  18.900  0.00  0.00    +0.098 C 
BRANCH  37  38
ATOM     38  CD  GLN A   2       5.855   1.034  18.200  0.00  0.00    +0.211 C 
ATOM     39  OE1 GLN A   2       6.298   1.430  17.126  0.00  0.00    -0.276 OA
ATOM     40  NE2 GLN A   2       4.825   1.672  18.819  0.00  0.00    -0.329 N 
ATOM     41 HE21 GLN A   2       4.374   1.320  19.653  0.00  0.00    +0.145 HD
ATOM     42 HE22 GLN A   2       4.426   2.486  18.368  0.00  0.00    +0.145 HD
ENDBRANCH  37  38
ENDBRANCH  36  37
ENDBRANCH  24  36
ENDBRANCH   1  24
TORSDOF 19
ENDMDL
MODEL 10
REMARK VINA RESULT:      -6.0      1.716      2.952
REMARK  Name = VQSK-mmff94.pdb
REMARK  21 active torsions:
REMARK  status: ('A' for Active; 'I' for Inactive)
REMARK    1  A    between atoms: _1  and  _2
REMARK    2  A    between atoms: _2  and  _3
REMARK    3  A    between atoms: _2  and  _5
REMARK    4  A    between atoms: _5  and  _6
REMARK    5  A    between atoms: _5  and  _7
REMARK    6  A    between atoms: _17  and  _18
REMARK    7  A    between atoms: _18  and  _19
REMARK    8  A    between atoms: _18  and  _21
REMARK    9  A    between atoms: _21  and  _22
REMARK   10  A    between atoms: _22  and  _23
REMARK   11  A    between atoms: _34  and  _35
REMARK   12  A    between atoms: _35  and  _36
REMARK   13  A    between atoms: _35  and  _38
REMARK   14  A    between atoms: _38  and  _39
REMARK   15  A    between atoms: _45  and  _46
REMARK   16  A    between atoms: _46  and  _47
REMARK   17  A    between atoms: _46  and  _49
REMARK   18  A    between atoms: _49  and  _50
REMARK   19  A    between atoms: _50  and  _51
REMARK   20  A    between atoms: _51  and  _52
REMARK   21  A    between atoms: _52  and  _53
REMARK                            x       y       z     vdW  Elec       q    Type
REMARK                         _______ _______ _______ _____ _____    ______ ____
ROOT
ATOM      1  C   GLN A   2       8.099  -2.823  22.807  0.00  0.00    +0.234 C 
ATOM      2  O   GLN A   2       7.454  -3.629  22.135  0.00  0.00    -0.274 OA
ATOM      3  N   SER A   3       8.704  -3.176  23.983  0.00  0.00    -0.301 N 
ATOM      4  H   SER A   3       9.247  -2.509  24.526  0.00  0.00    +0.150 HD
ENDROOT
BRANCH   3   5
ATOM      5  CA  SER A   3       8.512  -4.493  24.589  0.00  0.00    +0.184 C 
BRANCH   5   6
ATOM      6  C   SER A   3       7.264  -4.411  25.484  0.00  0.00    +0.236 C 
ATOM      7  O   SER A   3       6.785  -3.334  25.849  0.00  0.00    -0.274 OA
ATOM      8  N   LYS A   4       6.691  -5.615  25.816  0.00  0.00    -0.304 N 
ATOM      9  H   LYS A   4       7.073  -6.491  25.463  0.00  0.00    +0.149 HD
BRANCH   8  10
ATOM     10  CA  LYS A   4       5.494  -5.698  26.642  0.00  0.00    +0.136 C 
BRANCH  10  11
ATOM     11  C   LYS A   4       5.960  -5.911  28.074  0.00  0.00    +0.245 C 
ATOM     12  O   LYS A   4       7.132  -6.118  28.378  0.00  0.00    -0.299 OA
ENDBRANCH  10  11
BRANCH  10  13
ATOM     13  CB  LYS A   4       4.588  -6.850  26.187  0.00  0.00    +0.030 C 
BRANCH  13  14
ATOM     14  CG  LYS A   4       4.448  -6.949  24.664  0.00  0.00    +0.007 C 
BRANCH  14  15
ATOM     15  CD  LYS A   4       3.651  -5.761  24.115  0.00  0.00    +0.051 C 
BRANCH  15  16
ATOM     16  CE  LYS A   4       4.416  -5.024  23.026  0.00  0.00    +0.127 C 
BRANCH  16  17
ATOM     17  NZ  LYS A   4       5.357  -5.967  22.373  0.00  0.00    +0.219 N 
ATOM     18  HZ1 LYS A   4       4.867  -6.601  21.726  0.00  0.00    +0.199 HD
ATOM     19  HZ2 LYS A   4       5.840  -6.553  23.066  0.00  0.00    +0.199 HD
ATOM     20  HZ3 LYS A   4       6.079  -5.474  21.832  0.00  0.00    +0.199 HD
ENDBRANCH  16  17
ENDBRANCH  15  16
ENDBRANCH  14  15
ENDBRANCH  13  14
ENDBRANCH  10  13
ENDBRANCH   8  10
ENDBRANCH   5   6
BRANCH   5  21
ATOM     21  CB  SER A   3       9.741  -4.959  25.375  0.00  0.00    +0.187 C 
BRANCH  21  22
ATOM     22  OG  SER A   3       9.499  -4.936  26.781  0.00  0.00    -0.393 OA
ATOM     23  H   SER A   3       8.884  -5.667  26.971  0.00  0.00    +0.209 HD
ENDBRANCH  21  22
ENDBRANCH   5  21
ENDBRANCH   3   5
BRANCH   1  24
ATOM     24  CA  GLN A   2       8.235  -1.343  22.405  0.00  0.00    +0.159 C 
BRANCH  24  26
ATOM     25  C   VAL A   1       7.523  -0.507  20.180  0.00  0.00    +0.231 C 
ATOM     26  N   GLN A   2       7.227  -1.110  21.377  0.00  0.00    -0.303 N 
ATOM     27  H   GLN A   2       6.287  -1.451  21.565  0.00  0.00    +0.149 HD
ATOM     28  O   VAL A   1       8.647  -0.081  19.920  0.00  0.00    -0.274 OA
BRANCH  25  29
ATOM     29  CA  VAL A   1       6.326  -0.384  19.200  0.00  0.00    +0.140 C 
BRANCH  29  30
ATOM     30  CB  VAL A   1       5.996   1.094  18.877  0.00  0.00    +0.009 C 
ATOM     31  CG2 VAL A   1       6.164   1.416  17.387  0.00  0.00    +0.009 C 
ATOM     32  CG1 VAL A   1       4.563   1.456  19.295  0.00  0.00    +0.009 C 
ENDBRANCH  29  30
BRANCH  29  33
ATOM     33  N   VAL A   1       5.163  -1.065  19.809  0.00  0.00    -0.320 NA
ATOM     34  H1  VAL A   1       4.448  -0.367  20.017  0.00  0.00    +0.119 HD
ATOM     35  H2  VAL A   1       4.736  -1.650  19.084  0.00  0.00    +0.119 HD
ENDBRANCH  29  33
ENDBRANCH  25  29
ENDBRANCH  24  26
BRANCH  24  36
ATOM     36  CB  GLN A   2       8.000  -0.419  23.608  0.00  0.00    +0.041 C 
BRANCH  36  37
ATOM     37  CG  GLN A   2       9.025   0.711  23.709  0.00  0.00    +0.098 C 
BRANCH  37  38
ATOM     38  CD  GLN A   2       8.752   1.824  22.722  0.00  0.00    +0.211 C 
ATOM     39  OE1 GLN A   2       7.744   2.522  22.766  0.00  0.00    -0.276 OA
ATOM     40  NE2 GLN A   2       9.716   2.033  21.785  0.00  0.00    -0.329 N 
ATOM     41 HE21 GLN A   2      10.600   1.542  21.777  0.00  0.00    +0.145 HD
ATOM     42 HE22 GLN A   2       9.584   2.787  21.123  0.00  0.00    +0.145 HD
ENDBRANCH  37  38
ENDBRANCH  36  37
ENDBRANCH  24  36
ENDBRANCH   1  24
TORSDOF 19
ENDMDL
MODEL 11
REMARK VINA RESULT:      -6.0      1.331      2.010
REMARK  Name = VQSK-mmff94.pdb
REMARK  21 active torsions:
REMARK  status: ('A' for Active; 'I' for Inactive)
REMARK    1  A    between atoms: _1  and  _2
REMARK    2  A    between atoms: _2  and  _3
REMARK    3  A    between atoms: _2  and  _5
REMARK    4  A    between atoms: _5  and  _6
REMARK    5  A    between atoms: _5  and  _7
REMARK    6  A    between atoms: _17  and  _18
REMARK    7  A    between atoms: _18  and  _19
REMARK    8  A    between atoms: _18  and  _21
REMARK    9  A    between atoms: _21  and  _22
REMARK   10  A    between atoms: _22  and  _23
REMARK   11  A    between atoms: _34  and  _35
REMARK   12  A    between atoms: _35  and  _36
REMARK   13  A    between atoms: _35  and  _38
REMARK   14  A    between atoms: _38  and  _39
REMARK   15  A    between atoms: _45  and  _46
REMARK   16  A    between atoms: _46  and  _47
REMARK   17  A    between atoms: _46  and  _49
REMARK   18  A    between atoms: _49  and  _50
REMARK   19  A    between atoms: _50  and  _51
REMARK   20  A    between atoms: _51  and  _52
REMARK   21  A    between atoms: _52  and  _53
REMARK                            x       y       z     vdW  Elec       q    Type
REMARK                         _______ _______ _______ _____ _____    ______ ____
ROOT
ATOM      1  C   GLN A   2       9.467  -2.148  23.909  0.00  0.00    +0.234 C 
ATOM      2  O   GLN A   2      10.404  -2.653  23.292  0.00  0.00    -0.274 OA
ATOM      3  N   SER A   3       8.783  -2.828  24.881  0.00  0.00    -0.301 N 
ATOM      4  H   SER A   3       8.020  -2.400  25.397  0.00  0.00    +0.150 HD
ENDROOT
BRANCH   3   5
ATOM      5  CA  SER A   3       9.030  -4.243  25.155  0.00  0.00    +0.184 C 
BRANCH   5   6
ATOM      6  C   SER A   3       8.107  -5.060  24.235  0.00  0.00    +0.236 C 
ATOM      7  O   SER A   3       8.540  -5.917  23.461  0.00  0.00    -0.274 OA
ATOM      8  N   LYS A   4       6.763  -4.803  24.363  0.00  0.00    -0.304 N 
ATOM      9  H   LYS A   4       6.422  -4.127  25.045  0.00  0.00    +0.149 HD
BRANCH   8  10
ATOM     10  CA  LYS A   4       5.764  -5.511  23.574  0.00  0.00    +0.136 C 
BRANCH  10  11
ATOM     11  C   LYS A   4       5.358  -4.581  22.441  0.00  0.00    +0.245 C 
ATOM     12  O   LYS A   4       6.164  -4.059  21.674  0.00  0.00    -0.299 OA
ENDBRANCH  10  11
BRANCH  10  13
ATOM     13  CB  LYS A   4       4.549  -5.887  24.431  0.00  0.00    +0.030 C 
BRANCH  13  14
ATOM     14  CG  LYS A   4       4.921  -6.612  25.729  0.00  0.00    +0.007 C 
BRANCH  14  15
ATOM     15  CD  LYS A   4       4.170  -6.007  26.921  0.00  0.00    +0.051 C 
BRANCH  15  16
ATOM     16  CE  LYS A   4       4.985  -6.094  28.202  0.00  0.00    +0.127 C 
BRANCH  16  17
ATOM     17  NZ  LYS A   4       5.629  -7.427  28.278  0.00  0.00    +0.219 N 
ATOM     18  HZ1 LYS A   4       6.619  -7.354  28.550  0.00  0.00    +0.199 HD
ATOM     19  HZ2 LYS A   4       5.598  -7.910  27.370  0.00  0.00    +0.199 HD
ATOM     20  HZ3 LYS A   4       5.167  -8.038  28.965  0.00  0.00    +0.199 HD
ENDBRANCH  16  17
ENDBRANCH  15  16
ENDBRANCH  14  15
ENDBRANCH  13  14
ENDBRANCH  10  13
ENDBRANCH   8  10
ENDBRANCH   5   6
BRANCH   5  21
ATOM     21  CB  SER A   3       8.816  -4.599  26.629  0.00  0.00    +0.187 C 
BRANCH  21  22
ATOM     22  OG  SER A   3       8.206  -5.881  26.772  0.00  0.00    -0.393 OA
ATOM     23  H   SER A   3       8.279  -6.323  25.907  0.00  0.00    +0.209 HD
ENDBRANCH  21  22
ENDBRANCH   5  21
ENDBRANCH   3   5
BRANCH   1  24
ATOM     24  CA  GLN A   2       8.954  -0.727  23.605  0.00  0.00    +0.159 C 
BRANCH  24  26
ATOM     25  C   VAL A   1       8.268  -0.348  21.251  0.00  0.00    +0.231 C 
ATOM     26  N   GLN A   2       8.016  -0.867  22.496  0.00  0.00    -0.303 N 
ATOM     27  H   GLN A   2       7.171  -1.405  22.670  0.00  0.00    +0.149 HD
ATOM     28  O   VAL A   1       9.279   0.310  21.006  0.00  0.00    -0.274 OA
BRANCH  25  29
ATOM     29  CA  VAL A   1       7.171  -0.634  20.192  0.00  0.00    +0.140 C 
BRANCH  29  30
ATOM     30  CB  VAL A   1       6.750   0.651  19.438  0.00  0.00    +0.009 C 
ATOM     31  CG2 VAL A   1       5.845   0.351  18.237  0.00  0.00    +0.009 C 
ATOM     32  CG1 VAL A   1       6.019   1.635  20.364  0.00  0.00    +0.009 C 
ENDBRANCH  29  30
BRANCH  29  33
ATOM     33  N   VAL A   1       6.015  -1.244  20.884  0.00  0.00    -0.320 NA
ATOM     34  H1  VAL A   1       5.157  -0.912  20.442  0.00  0.00    +0.119 HD
ATOM     35  H2  VAL A   1       6.029  -2.248  20.678  0.00  0.00    +0.119 HD
ENDBRANCH  29  33
ENDBRANCH  25  29
ENDBRANCH  24  26
BRANCH  24  36
ATOM     36  CB  GLN A   2       8.254  -0.119  24.828  0.00  0.00    +0.041 C 
BRANCH  36  37
ATOM     37  CG  GLN A   2       6.803   0.278  24.556  0.00  0.00    +0.098 C 
BRANCH  37  38
ATOM     38  CD  GLN A   2       5.821  -0.774  25.024  0.00  0.00    +0.211 C 
ATOM     39  OE1 GLN A   2       5.764  -1.897  24.533  0.00  0.00    -0.276 OA
ATOM     40  NE2 GLN A   2       5.013  -0.411  26.057  0.00  0.00    -0.329 N 
ATOM     41 HE21 GLN A   2       5.098   0.470  26.547  0.00  0.00    +0.145 HD
ATOM     42 HE22 GLN A   2       4.362  -1.096  26.418  0.00  0.00    +0.145 HD
ENDBRANCH  37  38
ENDBRANCH  36  37
ENDBRANCH  24  36
ENDBRANCH   1  24
TORSDOF 19
ENDMDL
MODEL 12
REMARK VINA RESULT:      -6.0      2.533      7.643
REMARK  Name = VQSK-mmff94.pdb
REMARK  21 active torsions:
REMARK  status: ('A' for Active; 'I' for Inactive)
REMARK    1  A    between atoms: _1  and  _2
REMARK    2  A    between atoms: _2  and  _3
REMARK    3  A    between atoms: _2  and  _5
REMARK    4  A    between atoms: _5  and  _6
REMARK    5  A    between atoms: _5  and  _7
REMARK    6  A    between atoms: _17  and  _18
REMARK    7  A    between atoms: _18  and  _19
REMARK    8  A    between atoms: _18  and  _21
REMARK    9  A    between atoms: _21  and  _22
REMARK   10  A    between atoms: _22  and  _23
REMARK   11  A    between atoms: _34  and  _35
REMARK   12  A    between atoms: _35  and  _36
REMARK   13  A    between atoms: _35  and  _38
REMARK   14  A    between atoms: _38  and  _39
REMARK   15  A    between atoms: _45  and  _46
REMARK   16  A    between atoms: _46  and  _47
REMARK   17  A    between atoms: _46  and  _49
REMARK   18  A    between atoms: _49  and  _50
REMARK   19  A    between atoms: _50  and  _51
REMARK   20  A    between atoms: _51  and  _52
REMARK   21  A    between atoms: _52  and  _53
REMARK                            x       y       z     vdW  Elec       q    Type
REMARK                         _______ _______ _______ _____ _____    ______ ____
ROOT
ATOM      1  C   GLN A   2       7.279   0.602  21.071  0.00  0.00    +0.234 C 
ATOM      2  O   GLN A   2       8.413   1.001  20.807  0.00  0.00    -0.274 OA
ATOM      3  N   SER A   3       6.325   1.423  21.611  0.00  0.00    -0.301 N 
ATOM      4  H   SER A   3       5.386   1.090  21.812  0.00  0.00    +0.150 HD
ENDROOT
BRANCH   3   5
ATOM      5  CA  SER A   3       6.629   2.788  22.037  0.00  0.00    +0.184 C 
BRANCH   5   6
ATOM      6  C   SER A   3       7.634   2.695  23.198  0.00  0.00    +0.236 C 
ATOM      7  O   SER A   3       7.308   2.305  24.321  0.00  0.00    -0.274 OA
ATOM      8  N   LYS A   4       8.930   3.035  22.890  0.00  0.00    -0.304 N 
ATOM      9  H   LYS A   4       9.188   3.306  21.943  0.00  0.00    +0.149 HD
BRANCH   8  10
ATOM     10  CA  LYS A   4       9.998   2.978  23.879  0.00  0.00    +0.136 C 
BRANCH  10  11
ATOM     11  C   LYS A   4      10.864   4.209  23.663  0.00  0.00    +0.245 C 
ATOM     12  O   LYS A   4      12.039   4.153  23.305  0.00  0.00    -0.299 OA
ENDBRANCH  10  11
BRANCH  10  13
ATOM     13  CB  LYS A   4      10.826   1.696  23.724  0.00  0.00    +0.030 C 
BRANCH  13  14
ATOM     14  CG  LYS A   4      10.416   0.585  24.699  0.00  0.00    +0.007 C 
BRANCH  14  15
ATOM     15  CD  LYS A   4       9.483  -0.418  24.015  0.00  0.00    +0.051 C 
BRANCH  15  16
ATOM     16  CE  LYS A   4      10.257  -1.550  23.357  0.00  0.00    +0.127 C 
BRANCH  16  17
ATOM     17  NZ  LYS A   4      10.154  -1.415  21.884  0.00  0.00    +0.219 N 
ATOM     18  HZ1 LYS A   4      10.794  -0.691  21.525  0.00  0.00    +0.199 HD
ATOM     19  HZ2 LYS A   4       9.203  -1.147  21.598  0.00  0.00    +0.199 HD
ATOM     20  HZ3 LYS A   4      10.383  -2.293  21.401  0.00  0.00    +0.199 HD
ENDBRANCH  16  17
ENDBRANCH  15  16
ENDBRANCH  14  15
ENDBRANCH  13  14
ENDBRANCH  10  13
ENDBRANCH   8  10
ENDBRANCH   5   6
BRANCH   5  21
ATOM     21  CB  SER A   3       5.373   3.567  22.440  0.00  0.00    +0.187 C 
BRANCH  21  22
ATOM     22  OG  SER A   3       5.677   4.589  23.388  0.00  0.00    -0.393 OA
ATOM     23  H   SER A   3       6.101   4.149  24.147  0.00  0.00    +0.209 HD
ENDBRANCH  21  22
ENDBRANCH   5  21
ENDBRANCH   3   5
BRANCH   1  24
ATOM     24  CA  GLN A   2       6.855  -0.864  20.861  0.00  0.00    +0.159 C 
BRANCH  24  26
ATOM     25  C   VAL A   1       6.745  -2.514  22.711  0.00  0.00    +0.231 C 
ATOM     26  N   GLN A   2       6.351  -1.326  22.149  0.00  0.00    -0.303 N 
ATOM     27  H   GLN A   2       5.713  -0.706  22.645  0.00  0.00    +0.149 HD
ATOM     28  O   VAL A   1       7.512  -3.288  22.138  0.00  0.00    -0.274 OA
BRANCH  25  29
ATOM     29  CA  VAL A   1       6.129  -2.812  24.103  0.00  0.00    +0.140 C 
BRANCH  29  30
ATOM     30  CB  VAL A   1       7.154  -3.475  25.056  0.00  0.00    +0.009 C 
ATOM     31  CG2 VAL A   1       7.321  -2.694  26.365  0.00  0.00    +0.009 C 
ATOM     32  CG1 VAL A   1       6.753  -4.919  25.398  0.00  0.00    +0.009 C 
ENDBRANCH  29  30
BRANCH  29  33
ATOM     33  N   VAL A   1       4.950  -3.683  23.905  0.00  0.00    -0.320 NA
ATOM     34  H1  VAL A   1       5.198  -4.426  23.252  0.00  0.00    +0.119 HD
ATOM     35  H2  VAL A   1       4.780  -4.174  24.788  0.00  0.00    +0.119 HD
ENDBRANCH  29  33
ENDBRANCH  25  29
ENDBRANCH  24  26
BRANCH  24  36
ATOM     36  CB  GLN A   2       5.767  -0.976  19.785  0.00  0.00    +0.041 C 
BRANCH  36  37
ATOM     37  CG  GLN A   2       6.258  -0.592  18.389  0.00  0.00    +0.098 C 
BRANCH  37  38
ATOM     38  CD  GLN A   2       5.833   0.805  17.995  0.00  0.00    +0.211 C 
ATOM     39  OE1 GLN A   2       6.425   1.469  17.149  0.00  0.00    -0.276 OA
ATOM     40  NE2 GLN A   2       4.720   1.283  18.616  0.00  0.00    -0.329 N 
ATOM     41 HE21 GLN A   2       4.154   0.730  19.246  0.00  0.00    +0.145 HD
ATOM     42 HE22 GLN A   2       4.387   2.204  18.360  0.00  0.00    +0.145 HD
ENDBRANCH  37  38
ENDBRANCH  36  37
ENDBRANCH  24  36
ENDBRANCH   1  24
TORSDOF 19
ENDMDL
MODEL 13
REMARK VINA RESULT:      -5.9      2.280      6.703
REMARK  Name = VQSK-mmff94.pdb
REMARK  21 active torsions:
REMARK  status: ('A' for Active; 'I' for Inactive)
REMARK    1  A    between atoms: _1  and  _2
REMARK    2  A    between atoms: _2  and  _3
REMARK    3  A    between atoms: _2  and  _5
REMARK    4  A    between atoms: _5  and  _6
REMARK    5  A    between atoms: _5  and  _7
REMARK    6  A    between atoms: _17  and  _18
REMARK    7  A    between atoms: _18  and  _19
REMARK    8  A    between atoms: _18  and  _21
REMARK    9  A    between atoms: _21  and  _22
REMARK   10  A    between atoms: _22  and  _23
REMARK   11  A    between atoms: _34  and  _35
REMARK   12  A    between atoms: _35  and  _36
REMARK   13  A    between atoms: _35  and  _38
REMARK   14  A    between atoms: _38  and  _39
REMARK   15  A    between atoms: _45  and  _46
REMARK   16  A    between atoms: _46  and  _47
REMARK   17  A    between atoms: _46  and  _49
REMARK   18  A    between atoms: _49  and  _50
REMARK   19  A    between atoms: _50  and  _51
REMARK   20  A    between atoms: _51  and  _52
REMARK   21  A    between atoms: _52  and  _53
REMARK                            x       y       z     vdW  Elec       q    Type
REMARK                         _______ _______ _______ _____ _____    ______ ____
ROOT
ATOM      1  C   GLN A   2       8.850  -3.596  24.708  0.00  0.00    +0.234 C 
ATOM      2  O   GLN A   2       9.926  -3.503  24.116  0.00  0.00    -0.274 OA
ATOM      3  N   SER A   3       7.658  -3.693  24.040  0.00  0.00    -0.301 N 
ATOM      4  H   SER A   3       6.775  -3.784  24.535  0.00  0.00    +0.150 HD
ENDROOT
BRANCH   3   5
ATOM      5  CA  SER A   3       7.570  -3.552  22.588  0.00  0.00    +0.184 C 
BRANCH   5   6
ATOM      6  C   SER A   3       7.001  -2.154  22.293  0.00  0.00    +0.236 C 
ATOM      7  O   SER A   3       6.336  -1.526  23.120  0.00  0.00    -0.274 OA
ATOM      8  N   LYS A   4       7.318  -1.631  21.062  0.00  0.00    -0.304 N 
ATOM      9  H   LYS A   4       7.911  -2.145  20.412  0.00  0.00    +0.149 HD
BRANCH   8  10
ATOM     10  CA  LYS A   4       6.868  -0.309  20.647  0.00  0.00    +0.136 C 
BRANCH  10  11
ATOM     11  C   LYS A   4       6.102  -0.493  19.346  0.00  0.00    +0.245 C 
ATOM     12  O   LYS A   4       6.625  -0.410  18.237  0.00  0.00    -0.299 OA
ENDBRANCH  10  11
BRANCH  10  13
ATOM     13  CB  LYS A   4       8.056   0.641  20.449  0.00  0.00    +0.030 C 
BRANCH  13  14
ATOM     14  CG  LYS A   4       8.378   1.480  21.691  0.00  0.00    +0.007 C 
BRANCH  14  15
ATOM     15  CD  LYS A   4       9.882   1.462  21.981  0.00  0.00    +0.051 C 
BRANCH  15  16
ATOM     16  CE  LYS A   4      10.177   0.988  23.396  0.00  0.00    +0.127 C 
BRANCH  16  17
ATOM     17  NZ  LYS A   4      10.105  -0.493  23.435  0.00  0.00    +0.219 N 
ATOM     18  HZ1 LYS A   4      10.997  -0.921  23.147  0.00  0.00    +0.199 HD
ATOM     19  HZ2 LYS A   4       9.378  -0.849  22.802  0.00  0.00    +0.199 HD
ATOM     20  HZ3 LYS A   4       9.888  -0.842  24.378  0.00  0.00    +0.199 HD
ENDBRANCH  16  17
ENDBRANCH  15  16
ENDBRANCH  14  15
ENDBRANCH  13  14
ENDBRANCH  10  13
ENDBRANCH   8  10
ENDBRANCH   5   6
BRANCH   5  21
ATOM     21  CB  SER A   3       6.722  -4.654  21.945  0.00  0.00    +0.187 C 
BRANCH  21  22
ATOM     22  OG  SER A   3       5.543  -4.119  21.344  0.00  0.00    -0.393 OA
ATOM     23  H   SER A   3       5.458  -3.202  21.663  0.00  0.00    +0.209 HD
ENDBRANCH  21  22
ENDBRANCH   5  21
ENDBRANCH   3   5
BRANCH   1  24
ATOM     24  CA  GLN A   2       8.753  -3.563  26.244  0.00  0.00    +0.159 C 
BRANCH  24  26
ATOM     25  C   VAL A   1       8.240  -1.160  26.588  0.00  0.00    +0.231 C 
ATOM     26  N   GLN A   2       7.839  -2.472  26.566  0.00  0.00    -0.303 N 
ATOM     27  H   GLN A   2       6.867  -2.718  26.740  0.00  0.00    +0.149 HD
ATOM     28  O   VAL A   1       9.407  -0.826  26.386  0.00  0.00    -0.274 OA
BRANCH  25  29
ATOM     29  CA  VAL A   1       7.116  -0.141  26.913  0.00  0.00    +0.140 C 
BRANCH  29  30
ATOM     30  CB  VAL A   1       6.798   0.771  25.703  0.00  0.00    +0.009 C 
ATOM     31  CG2 VAL A   1       5.295   1.041  25.557  0.00  0.00    +0.009 C 
ATOM     32  CG1 VAL A   1       7.527   2.120  25.807  0.00  0.00    +0.009 C 
ENDBRANCH  29  30
BRANCH  29  33
ATOM     33  N   VAL A   1       7.546   0.658  28.080  0.00  0.00    -0.320 NA
ATOM     34  H1  VAL A   1       8.359   0.210  28.503  0.00  0.00    +0.119 HD
ATOM     35  H2  VAL A   1       7.909   1.549  27.726  0.00  0.00    +0.119 HD
ENDBRANCH  29  33
ENDBRANCH  25  29
ENDBRANCH  24  26
BRANCH  24  36
ATOM     36  CB  GLN A   2       8.218  -4.893  26.793  0.00  0.00    +0.041 C 
BRANCH  36  37
ATOM     37  CG  GLN A   2       6.758  -4.816  27.241  0.00  0.00    +0.098 C 
BRANCH  37  38
ATOM     38  CD  GLN A   2       5.867  -5.755  26.459  0.00  0.00    +0.211 C 
ATOM     39  OE1 GLN A   2       5.588  -5.580  25.278  0.00  0.00    -0.276 OA
ATOM     40  NE2 GLN A   2       5.408  -6.840  27.141  0.00  0.00    -0.329 N 
ATOM     41 HE21 GLN A   2       5.695  -7.066  28.085  0.00  0.00    +0.145 HD
ATOM     42 HE22 GLN A   2       4.832  -7.508  26.646  0.00  0.00    +0.145 HD
ENDBRANCH  37  38
ENDBRANCH  36  37
ENDBRANCH  24  36
ENDBRANCH   1  24
TORSDOF 19
ENDMDL
MODEL 14
REMARK VINA RESULT:      -5.9      1.636      2.951
REMARK  Name = VQSK-mmff94.pdb
REMARK  21 active torsions:
REMARK  status: ('A' for Active; 'I' for Inactive)
REMARK    1  A    between atoms: _1  and  _2
REMARK    2  A    between atoms: _2  and  _3
REMARK    3  A    between atoms: _2  and  _5
REMARK    4  A    between atoms: _5  and  _6
REMARK    5  A    between atoms: _5  and  _7
REMARK    6  A    between atoms: _17  and  _18
REMARK    7  A    between atoms: _18  and  _19
REMARK    8  A    between atoms: _18  and  _21
REMARK    9  A    between atoms: _21  and  _22
REMARK   10  A    between atoms: _22  and  _23
REMARK   11  A    between atoms: _34  and  _35
REMARK   12  A    between atoms: _35  and  _36
REMARK   13  A    between atoms: _35  and  _38
REMARK   14  A    between atoms: _38  and  _39
REMARK   15  A    between atoms: _45  and  _46
REMARK   16  A    between atoms: _46  and  _47
REMARK   17  A    between atoms: _46  and  _49
REMARK   18  A    between atoms: _49  and  _50
REMARK   19  A    between atoms: _50  and  _51
REMARK   20  A    between atoms: _51  and  _52
REMARK   21  A    between atoms: _52  and  _53
REMARK                            x       y       z     vdW  Elec       q    Type
REMARK                         _______ _______ _______ _____ _____    ______ ____
ROOT
ATOM      1  C   GLN A   2       9.699  -1.918  23.809  0.00  0.00    +0.234 C 
ATOM      2  O   GLN A   2      10.299  -2.759  23.139  0.00  0.00    -0.274 OA
ATOM      3  N   SER A   3       8.923  -2.263  24.884  0.00  0.00    -0.301 N 
ATOM      4  H   SER A   3       8.442  -1.563  25.442  0.00  0.00    +0.150 HD
ENDROOT
BRANCH   3   5
ATOM      5  CA  SER A   3       8.644  -3.658  25.223  0.00  0.00    +0.184 C 
BRANCH   5   6
ATOM      6  C   SER A   3       7.133  -3.882  25.049  0.00  0.00    +0.236 C 
ATOM      7  O   SER A   3       6.329  -2.947  25.009  0.00  0.00    -0.274 OA
ATOM      8  N   LYS A   4       6.739  -5.190  24.898  0.00  0.00    -0.304 N 
ATOM      9  H   LYS A   4       7.424  -5.943  24.884  0.00  0.00    +0.149 HD
BRANCH   8  10
ATOM     10  CA  LYS A   4       5.343  -5.558  24.704  0.00  0.00    +0.136 C 
BRANCH  10  11
ATOM     11  C   LYS A   4       4.987  -6.535  25.814  0.00  0.00    +0.245 C 
ATOM     12  O   LYS A   4       5.698  -6.727  26.798  0.00  0.00    -0.299 OA
ENDBRANCH  10  11
BRANCH  10  13
ATOM     13  CB  LYS A   4       5.126  -6.197  23.327  0.00  0.00    +0.030 C 
BRANCH  13  14
ATOM     14  CG  LYS A   4       6.399  -6.252  22.475  0.00  0.00    +0.007 C 
BRANCH  14  15
ATOM     15  CD  LYS A   4       6.224  -5.442  21.186  0.00  0.00    +0.051 C 
BRANCH  15  16
ATOM     16  CE  LYS A   4       5.970  -3.971  21.476  0.00  0.00    +0.127 C 
BRANCH  16  17
ATOM     17  NZ  LYS A   4       7.243  -3.332  21.889  0.00  0.00    +0.219 N 
ATOM     18  HZ1 LYS A   4       7.076  -2.493  22.463  0.00  0.00    +0.199 HD
ATOM     19  HZ2 LYS A   4       7.796  -3.038  21.074  0.00  0.00    +0.199 HD
ATOM     20  HZ3 LYS A   4       7.830  -3.970  22.443  0.00  0.00    +0.199 HD
ENDBRANCH  16  17
ENDBRANCH  15  16
ENDBRANCH  14  15
ENDBRANCH  13  14
ENDBRANCH  10  13
ENDBRANCH   8  10
ENDBRANCH   5   6
BRANCH   5  21
ATOM     21  CB  SER A   3       9.110  -4.019  26.636  0.00  0.00    +0.187 C 
BRANCH  21  22
ATOM     22  OG  SER A   3       8.444  -5.185  27.121  0.00  0.00    -0.393 OA
ATOM     23  H   SER A   3       7.810  -4.885  27.796  0.00  0.00    +0.209 HD
ENDBRANCH  21  22
ENDBRANCH   5  21
ENDBRANCH   3   5
BRANCH   1  24
ATOM     24  CA  GLN A   2       9.732  -0.417  23.466  0.00  0.00    +0.159 C 
BRANCH  24  26
ATOM     25  C   VAL A   1       8.162   0.065  21.606  0.00  0.00    +0.231 C 
ATOM     26  N   GLN A   2       8.408  -0.094  22.947  0.00  0.00    -0.303 N 
ATOM     27  H   GLN A   2       7.649  -0.027  23.622  0.00  0.00    +0.149 HD
ATOM     28  O   VAL A   1       9.055  -0.006  20.762  0.00  0.00    -0.274 OA
BRANCH  25  29
ATOM     29  CA  VAL A   1       6.684   0.367  21.247  0.00  0.00    +0.140 C 
BRANCH  29  30
ATOM     30  CB  VAL A   1       6.450   0.361  19.716  0.00  0.00    +0.009 C 
ATOM     31  CG2 VAL A   1       5.943  -0.995  19.210  0.00  0.00    +0.009 C 
ATOM     32  CG1 VAL A   1       5.445   1.444  19.294  0.00  0.00    +0.009 C 
ENDBRANCH  29  30
BRANCH  29  33
ATOM     33  N   VAL A   1       6.329   1.679  21.830  0.00  0.00    -0.320 NA
ATOM     34  H1  VAL A   1       6.932   1.853  22.634  0.00  0.00    +0.119 HD
ATOM     35  H2  VAL A   1       6.601   2.399  21.154  0.00  0.00    +0.119 HD
ENDBRANCH  29  33
ENDBRANCH  25  29
ENDBRANCH  24  26
BRANCH  24  36
ATOM     36  CB  GLN A   2      10.044   0.427  24.709  0.00  0.00    +0.041 C 
BRANCH  36  37
ATOM     37  CG  GLN A   2       9.352   1.791  24.699  0.00  0.00    +0.098 C 
BRANCH  37  38
ATOM     38  CD  GLN A   2       9.948   2.731  23.675  0.00  0.00    +0.211 C 
ATOM     39  OE1 GLN A   2      11.154   2.937  23.582  0.00  0.00    -0.276 OA
ATOM     40  NE2 GLN A   2       9.062   3.321  22.828  0.00  0.00    -0.329 N 
ATOM     41 HE21 GLN A   2       8.075   3.102  22.814  0.00  0.00    +0.145 HD
ATOM     42 HE22 GLN A   2       9.424   3.936  22.109  0.00  0.00    +0.145 HD
ENDBRANCH  37  38
ENDBRANCH  36  37
ENDBRANCH  24  36
ENDBRANCH   1  24
TORSDOF 19
ENDMDL
MODEL 15
REMARK VINA RESULT:      -5.9      2.972      7.482
REMARK  Name = VQSK-mmff94.pdb
REMARK  21 active torsions:
REMARK  status: ('A' for Active; 'I' for Inactive)
REMARK    1  A    between atoms: _1  and  _2
REMARK    2  A    between atoms: _2  and  _3
REMARK    3  A    between atoms: _2  and  _5
REMARK    4  A    between atoms: _5  and  _6
REMARK    5  A    between atoms: _5  and  _7
REMARK    6  A    between atoms: _17  and  _18
REMARK    7  A    between atoms: _18  and  _19
REMARK    8  A    between atoms: _18  and  _21
REMARK    9  A    between atoms: _21  and  _22
REMARK   10  A    between atoms: _22  and  _23
REMARK   11  A    between atoms: _34  and  _35
REMARK   12  A    between atoms: _35  and  _36
REMARK   13  A    between atoms: _35  and  _38
REMARK   14  A    between atoms: _38  and  _39
REMARK   15  A    between atoms: _45  and  _46
REMARK   16  A    between atoms: _46  and  _47
REMARK   17  A    between atoms: _46  and  _49
REMARK   18  A    between atoms: _49  and  _50
REMARK   19  A    between atoms: _50  and  _51
REMARK   20  A    between atoms: _51  and  _52
REMARK   21  A    between atoms: _52  and  _53
REMARK                            x       y       z     vdW  Elec       q    Type
REMARK                         _______ _______ _______ _____ _____    ______ ____
ROOT
ATOM      1  C   GLN A   2       6.858   1.084  21.793  0.00  0.00    +0.234 C 
ATOM      2  O   GLN A   2       6.840   2.152  21.181  0.00  0.00    -0.274 OA
ATOM      3  N   SER A   3       6.463   0.987  23.101  0.00  0.00    -0.301 N 
ATOM      4  H   SER A   3       6.466   0.099  23.596  0.00  0.00    +0.150 HD
ENDROOT
BRANCH   3   5
ATOM      5  CA  SER A   3       6.124   2.166  23.897  0.00  0.00    +0.184 C 
BRANCH   5   6
ATOM      6  C   SER A   3       7.424   2.677  24.540  0.00  0.00    +0.236 C 
ATOM      7  O   SER A   3       7.669   2.525  25.740  0.00  0.00    -0.274 OA
ATOM      8  N   LYS A   4       8.316   3.276  23.683  0.00  0.00    -0.304 N 
ATOM      9  H   LYS A   4       8.117   3.346  22.687  0.00  0.00    +0.149 HD
BRANCH   8  10
ATOM     10  CA  LYS A   4       9.599   3.792  24.142  0.00  0.00    +0.136 C 
BRANCH  10  11
ATOM     11  C   LYS A   4       9.669   5.248  23.706  0.00  0.00    +0.245 C 
ATOM     12  O   LYS A   4       8.712   5.858  23.235  0.00  0.00    -0.299 OA
ENDBRANCH  10  11
BRANCH  10  13
ATOM     13  CB  LYS A   4      10.762   2.989  23.546  0.00  0.00    +0.030 C 
BRANCH  13  14
ATOM     14  CG  LYS A   4      10.310   1.891  22.577  0.00  0.00    +0.007 C 
BRANCH  14  15
ATOM     15  CD  LYS A   4      10.395   0.513  23.241  0.00  0.00    +0.051 C 
BRANCH  15  16
ATOM     16  CE  LYS A   4      10.891   0.609  24.676  0.00  0.00    +0.127 C 
BRANCH  16  17
ATOM     17  NZ  LYS A   4       9.809   0.178  25.592  0.00  0.00    +0.219 N 
ATOM     18  HZ1 LYS A   4       9.777  -0.848  25.683  0.00  0.00    +0.199 HD
ATOM     19  HZ2 LYS A   4       8.887   0.482  25.252  0.00  0.00    +0.199 HD
ATOM     20  HZ3 LYS A   4       9.929   0.565  26.537  0.00  0.00    +0.199 HD
ENDBRANCH  16  17
ENDBRANCH  15  16
ENDBRANCH  14  15
ENDBRANCH  13  14
ENDBRANCH  10  13
ENDBRANCH   8  10
ENDBRANCH   5   6
BRANCH   5  21
ATOM     21  CB  SER A   3       5.052   1.871  24.950  0.00  0.00    +0.187 C 
BRANCH  21  22
ATOM     22  OG  SER A   3       3.741   2.109  24.438  0.00  0.00    -0.393 OA
ATOM     23  H   SER A   3       3.848   2.369  23.505  0.00  0.00    +0.209 HD
ENDBRANCH  21  22
ENDBRANCH   5  21
ENDBRANCH   3   5
BRANCH   1  24
ATOM     24  CA  GLN A   2       7.373  -0.220  21.155  0.00  0.00    +0.159 C 
BRANCH  24  26
ATOM     25  C   VAL A   1       6.674  -2.460  21.960  0.00  0.00    +0.231 C 
ATOM     26  N   GLN A   2       6.361  -1.232  21.434  0.00  0.00    -0.303 N 
ATOM     27  H   GLN A   2       5.391  -0.977  21.259  0.00  0.00    +0.149 HD
ATOM     28  O   VAL A   1       7.835  -2.802  22.182  0.00  0.00    -0.274 OA
BRANCH  25  29
ATOM     29  CA  VAL A   1       5.457  -3.385  22.224  0.00  0.00    +0.140 C 
BRANCH  29  30
ATOM     30  CB  VAL A   1       5.203  -3.584  23.738  0.00  0.00    +0.009 C 
ATOM     31  CG2 VAL A   1       6.098  -4.675  24.341  0.00  0.00    +0.009 C 
ATOM     32  CG1 VAL A   1       5.426  -2.283  24.524  0.00  0.00    +0.009 C 
ENDBRANCH  29  30
BRANCH  29  33
ATOM     33  N   VAL A   1       5.711  -4.679  21.555  0.00  0.00    -0.320 NA
ATOM     34  H1  VAL A   1       4.847  -4.994  21.113  0.00  0.00    +0.119 HD
ATOM     35  H2  VAL A   1       6.343  -4.499  20.768  0.00  0.00    +0.119 HD
ENDBRANCH  29  33
ENDBRANCH  25  29
ENDBRANCH  24  26
BRANCH  24  36
ATOM     36  CB  GLN A   2       7.566  -0.055  19.641  0.00  0.00    +0.041 C 
BRANCH  36  37
ATOM     37  CG  GLN A   2       6.281  -0.275  18.842  0.00  0.00    +0.098 C 
BRANCH  37  38
ATOM     38  CD  GLN A   2       5.819   0.981  18.139  0.00  0.00    +0.211 C 
ATOM     39  OE1 GLN A   2       6.302   1.367  17.079  0.00  0.00    -0.276 OA
ATOM     40  NE2 GLN A   2       4.802   1.656  18.739  0.00  0.00    -0.329 N 
ATOM     41 HE21 GLN A   2       4.318   1.316  19.560  0.00  0.00    +0.145 HD
ATOM     42 HE22 GLN A   2       4.445   2.487  18.285  0.00  0.00    +0.145 HD
ENDBRANCH  37  38
ENDBRANCH  36  37
ENDBRANCH  24  36
ENDBRANCH   1  24
TORSDOF 19
ENDMDL
MODEL 16
REMARK VINA RESULT:      -5.9      1.578      3.647
REMARK  Name = VQSK-mmff94.pdb
REMARK  21 active torsions:
REMARK  status: ('A' for Active; 'I' for Inactive)
REMARK    1  A    between atoms: _1  and  _2
REMARK    2  A    between atoms: _2  and  _3
REMARK    3  A    between atoms: _2  and  _5
REMARK    4  A    between atoms: _5  and  _6
REMARK    5  A    between atoms: _5  and  _7
REMARK    6  A    between atoms: _17  and  _18
REMARK    7  A    between atoms: _18  and  _19
REMARK    8  A    between atoms: _18  and  _21
REMARK    9  A    between atoms: _21  and  _22
REMARK   10  A    between atoms: _22  and  _23
REMARK   11  A    between atoms: _34  and  _35
REMARK   12  A    between atoms: _35  and  _36
REMARK   13  A    between atoms: _35  and  _38
REMARK   14  A    between atoms: _38  and  _39
REMARK   15  A    between atoms: _45  and  _46
REMARK   16  A    between atoms: _46  and  _47
REMARK   17  A    between atoms: _46  and  _49
REMARK   18  A    between atoms: _49  and  _50
REMARK   19  A    between atoms: _50  and  _51
REMARK   20  A    between atoms: _51  and  _52
REMARK   21  A    between atoms: _52  and  _53
REMARK                            x       y       z     vdW  Elec       q    Type
REMARK                         _______ _______ _______ _____ _____    ______ ____
ROOT
ATOM      1  C   GLN A   2       8.824  -1.726  23.471  0.00  0.00    +0.234 C 
ATOM      2  O   GLN A   2       9.940  -1.958  23.005  0.00  0.00    -0.274 OA
ATOM      3  N   SER A   3       8.260  -2.518  24.436  0.00  0.00    -0.301 N 
ATOM      4  H   SER A   3       7.344  -2.312  24.828  0.00  0.00    +0.150 HD
ENDROOT
BRANCH   3   5
ATOM      5  CA  SER A   3       8.883  -3.765  24.877  0.00  0.00    +0.184 C 
BRANCH   5   6
ATOM      6  C   SER A   3       8.260  -4.907  24.057  0.00  0.00    +0.236 C 
ATOM      7  O   SER A   3       8.887  -5.931  23.774  0.00  0.00    -0.274 OA
ATOM      8  N   LYS A   4       6.946  -4.731  23.696  0.00  0.00    -0.304 N 
ATOM      9  H   LYS A   4       6.432  -3.901  23.982  0.00  0.00    +0.149 HD
BRANCH   8  10
ATOM     10  CA  LYS A   4       6.215  -5.736  22.934  0.00  0.00    +0.136 C 
BRANCH  10  11
ATOM     11  C   LYS A   4       6.234  -5.286  21.481  0.00  0.00    +0.245 C 
ATOM     12  O   LYS A   4       5.814  -4.193  21.107  0.00  0.00    -0.299 OA
ENDBRANCH  10  11
BRANCH  10  13
ATOM     13  CB  LYS A   4       4.775  -5.873  23.443  0.00  0.00    +0.030 C 
BRANCH  13  14
ATOM     14  CG  LYS A   4       4.361  -4.758  24.409  0.00  0.00    +0.007 C 
BRANCH  14  15
ATOM     15  CD  LYS A   4       3.921  -5.342  25.755  0.00  0.00    +0.051 C 
BRANCH  15  16
ATOM     16  CE  LYS A   4       5.010  -5.211  26.808  0.00  0.00    +0.127 C 
BRANCH  16  17
ATOM     17  NZ  LYS A   4       5.778  -6.478  26.872  0.00  0.00    +0.219 N 
ATOM     18  HZ1 LYS A   4       6.742  -6.319  27.196  0.00  0.00    +0.199 HD
ATOM     19  HZ2 LYS A   4       5.837  -6.926  25.948  0.00  0.00    +0.199 HD
ATOM     20  HZ3 LYS A   4       5.346  -7.156  27.514  0.00  0.00    +0.199 HD
ENDBRANCH  16  17
ENDBRANCH  15  16
ENDBRANCH  14  15
ENDBRANCH  13  14
ENDBRANCH  10  13
ENDBRANCH   8  10
ENDBRANCH   5   6
BRANCH   5  21
ATOM     21  CB  SER A   3       8.721  -3.998  26.382  0.00  0.00    +0.187 C 
BRANCH  21  22
ATOM     22  OG  SER A   3       8.522  -5.380  26.676  0.00  0.00    -0.393 OA
ATOM     23  H   SER A   3       9.061  -5.882  26.039  0.00  0.00    +0.209 HD
ENDBRANCH  21  22
ENDBRANCH   5  21
ENDBRANCH   3   5
BRANCH   1  24
ATOM     24  CA  GLN A   2       7.952  -0.559  22.973  0.00  0.00    +0.159 C 
BRANCH  24  26
ATOM     25  C   VAL A   1       9.136   1.450  23.823  0.00  0.00    +0.231 C 
ATOM     26  N   GLN A   2       8.855   0.575  22.804  0.00  0.00    -0.303 N 
ATOM     27  H   GLN A   2       9.308   0.674  21.898  0.00  0.00    +0.149 HD
ATOM     28  O   VAL A   1       8.604   1.361  24.929  0.00  0.00    -0.274 OA
BRANCH  25  29
ATOM     29  CA  VAL A   1      10.149   2.567  23.460  0.00  0.00    +0.140 C 
BRANCH  29  30
ATOM     30  CB  VAL A   1       9.677   3.956  23.956  0.00  0.00    +0.009 C 
ATOM     31  CG2 VAL A   1      10.723   5.049  23.708  0.00  0.00    +0.009 C 
ATOM     32  CG1 VAL A   1       8.363   4.378  23.281  0.00  0.00    +0.009 C 
ENDBRANCH  29  30
BRANCH  29  33
ATOM     33  N   VAL A   1      10.331   2.562  21.993  0.00  0.00    -0.320 NA
ATOM     34  H1  VAL A   1      10.007   1.667  21.626  0.00  0.00    +0.119 HD
ATOM     35  H2  VAL A   1       9.674   3.244  21.600  0.00  0.00    +0.119 HD
ENDBRANCH  29  33
ENDBRANCH  25  29
ENDBRANCH  24  26
BRANCH  24  36
ATOM     36  CB  GLN A   2       7.269  -0.906  21.644  0.00  0.00    +0.041 C 
BRANCH  36  37
ATOM     37  CG  GLN A   2       7.240   0.262  20.658  0.00  0.00    +0.098 C 
BRANCH  37  38
ATOM     38  CD  GLN A   2       6.719  -0.147  19.298  0.00  0.00    +0.211 C 
ATOM     39  OE1 GLN A   2       7.342   0.052  18.259  0.00  0.00    -0.276 OA
ATOM     40  NE2 GLN A   2       5.518  -0.785  19.291  0.00  0.00    -0.329 N 
ATOM     41 HE21 GLN A   2       5.024  -1.049  20.133  0.00  0.00    +0.145 HD
ATOM     42 HE22 GLN A   2       5.148  -1.099  18.403  0.00  0.00    +0.145 HD
ENDBRANCH  37  38
ENDBRANCH  36  37
ENDBRANCH  24  36
ENDBRANCH   1  24
TORSDOF 19
ENDMDL
MODEL 17
REMARK VINA RESULT:      -5.9      2.486      4.848
REMARK  Name = VQSK-mmff94.pdb
REMARK  21 active torsions:
REMARK  status: ('A' for Active; 'I' for Inactive)
REMARK    1  A    between atoms: _1  and  _2
REMARK    2  A    between atoms: _2  and  _3
REMARK    3  A    between atoms: _2  and  _5
REMARK    4  A    between atoms: _5  and  _6
REMARK    5  A    between atoms: _5  and  _7
REMARK    6  A    between atoms: _17  and  _18
REMARK    7  A    between atoms: _18  and  _19
REMARK    8  A    between atoms: _18  and  _21
REMARK    9  A    between atoms: _21  and  _22
REMARK   10  A    between atoms: _22  and  _23
REMARK   11  A    between atoms: _34  and  _35
REMARK   12  A    between atoms: _35  and  _36
REMARK   13  A    between atoms: _35  and  _38
REMARK   14  A    between atoms: _38  and  _39
REMARK   15  A    between atoms: _45  and  _46
REMARK   16  A    between atoms: _46  and  _47
REMARK   17  A    between atoms: _46  and  _49
REMARK   18  A    between atoms: _49  and  _50
REMARK   19  A    between atoms: _50  and  _51
REMARK   20  A    between atoms: _51  and  _52
REMARK   21  A    between atoms: _52  and  _53
REMARK                            x       y       z     vdW  Elec       q    Type
REMARK                         _______ _______ _______ _____ _____    ______ ____
ROOT
ATOM      1  C   GLN A   2       9.481  -1.587  24.368  0.00  0.00    +0.234 C 
ATOM      2  O   GLN A   2       9.813  -1.659  23.184  0.00  0.00    -0.274 OA
ATOM      3  N   SER A   3       9.262  -2.702  25.132  0.00  0.00    -0.301 N 
ATOM      4  H   SER A   3       9.003  -2.635  26.113  0.00  0.00    +0.150 HD
ENDROOT
BRANCH   3   5
ATOM      5  CA  SER A   3       9.273  -4.047  24.560  0.00  0.00    +0.184 C 
BRANCH   5   6
ATOM      6  C   SER A   3       7.845  -4.357  24.082  0.00  0.00    +0.236 C 
ATOM      7  O   SER A   3       7.002  -4.877  24.818  0.00  0.00    -0.274 OA
ATOM      8  N   LYS A   4       7.555  -3.978  22.793  0.00  0.00    -0.304 N 
ATOM      9  H   LYS A   4       8.249  -3.505  22.218  0.00  0.00    +0.149 HD
BRANCH   8  10
ATOM     10  CA  LYS A   4       6.238  -4.188  22.206  0.00  0.00    +0.136 C 
BRANCH  10  11
ATOM     11  C   LYS A   4       6.350  -5.401  21.294  0.00  0.00    +0.245 C 
ATOM     12  O   LYS A   4       5.978  -5.401  20.123  0.00  0.00    -0.299 OA
ENDBRANCH  10  11
BRANCH  10  13
ATOM     13  CB  LYS A   4       5.783  -2.954  21.416  0.00  0.00    +0.030 C 
BRANCH  13  14
ATOM     14  CG  LYS A   4       6.705  -1.743  21.595  0.00  0.00    +0.007 C 
BRANCH  14  15
ATOM     15  CD  LYS A   4       6.660  -0.841  20.358  0.00  0.00    +0.051 C 
BRANCH  15  16
ATOM     16  CE  LYS A   4       5.637  -1.326  19.344  0.00  0.00    +0.127 C 
BRANCH  16  17
ATOM     17  NZ  LYS A   4       5.831  -0.591  18.070  0.00  0.00    +0.219 N 
ATOM     18  HZ1 LYS A   4       6.743  -0.809  17.644  0.00  0.00    +0.199 HD
ATOM     19  HZ2 LYS A   4       5.800   0.426  18.217  0.00  0.00    +0.199 HD
ATOM     20  HZ3 LYS A   4       5.106  -0.823  17.379  0.00  0.00    +0.199 HD
ENDBRANCH  16  17
ENDBRANCH  15  16
ENDBRANCH  14  15
ENDBRANCH  13  14
ENDBRANCH  10  13
ENDBRANCH   8  10
ENDBRANCH   5   6
BRANCH   5  21
ATOM     21  CB  SER A   3       9.776  -5.100  25.553  0.00  0.00    +0.187 C 
BRANCH  21  22
ATOM     22  OG  SER A   3       9.072  -5.025  26.792  0.00  0.00    -0.393 OA
ATOM     23  H   SER A   3       9.172  -5.893  27.223  0.00  0.00    +0.209 HD
ENDBRANCH  21  22
ENDBRANCH   5  21
ENDBRANCH   3   5
BRANCH   1  24
ATOM     24  CA  GLN A   2       9.237  -0.238  25.071  0.00  0.00    +0.159 C 
BRANCH  24  26
ATOM     25  C   VAL A   1       9.662   1.742  23.639  0.00  0.00    +0.231 C 
ATOM     26  N   GLN A   2       8.856   0.700  24.022  0.00  0.00    -0.303 N 
ATOM     27  H   GLN A   2       7.971   0.530  23.548  0.00  0.00    +0.149 HD
ATOM     28  O   VAL A   1      10.735   1.979  24.191  0.00  0.00    -0.274 OA
BRANCH  25  29
ATOM     29  CA  VAL A   1       9.101   2.607  22.479  0.00  0.00    +0.140 C 
BRANCH  29  30
ATOM     30  CB  VAL A   1       7.665   3.106  22.775  0.00  0.00    +0.009 C 
ATOM     31  CG2 VAL A   1       7.568   4.637  22.771  0.00  0.00    +0.009 C 
ATOM     32  CG1 VAL A   1       6.655   2.551  21.760  0.00  0.00    +0.009 C 
ENDBRANCH  29  30
BRANCH  29  33
ATOM     33  N   VAL A   1       9.134   1.795  21.244  0.00  0.00    -0.320 NA
ATOM     34  H1  VAL A   1       8.487   1.013  21.349  0.00  0.00    +0.119 HD
ATOM     35  H2  VAL A   1       8.723   2.359  20.494  0.00  0.00    +0.119 HD
ENDBRANCH  29  33
ENDBRANCH  25  29
ENDBRANCH  24  26
BRANCH  24  36
ATOM     36  CB  GLN A   2       8.122  -0.356  26.120  0.00  0.00    +0.041 C 
BRANCH  36  37
ATOM     37  CG  GLN A   2       6.721  -0.193  25.530  0.00  0.00    +0.098 C 
BRANCH  37  38
ATOM     38  CD  GLN A   2       5.918  -1.473  25.594  0.00  0.00    +0.211 C 
ATOM     39  OE1 GLN A   2       5.052  -1.758  24.773  0.00  0.00    -0.276 OA
ATOM     40  NE2 GLN A   2       6.236  -2.321  26.610  0.00  0.00    -0.329 N 
ATOM     41 HE21 GLN A   2       7.006  -2.163  27.246  0.00  0.00    +0.145 HD
ATOM     42 HE22 GLN A   2       5.740  -3.201  26.671  0.00  0.00    +0.145 HD
ENDBRANCH  37  38
ENDBRANCH  36  37
ENDBRANCH  24  36
ENDBRANCH   1  24
TORSDOF 19
ENDMDL
MODEL 18
REMARK VINA RESULT:      -5.9      2.217      4.978
REMARK  Name = VQSK-mmff94.pdb
REMARK  21 active torsions:
REMARK  status: ('A' for Active; 'I' for Inactive)
REMARK    1  A    between atoms: _1  and  _2
REMARK    2  A    between atoms: _2  and  _3
REMARK    3  A    between atoms: _2  and  _5
REMARK    4  A    between atoms: _5  and  _6
REMARK    5  A    between atoms: _5  and  _7
REMARK    6  A    between atoms: _17  and  _18
REMARK    7  A    between atoms: _18  and  _19
REMARK    8  A    between atoms: _18  and  _21
REMARK    9  A    between atoms: _21  and  _22
REMARK   10  A    between atoms: _22  and  _23
REMARK   11  A    between atoms: _34  and  _35
REMARK   12  A    between atoms: _35  and  _36
REMARK   13  A    between atoms: _35  and  _38
REMARK   14  A    between atoms: _38  and  _39
REMARK   15  A    between atoms: _45  and  _46
REMARK   16  A    between atoms: _46  and  _47
REMARK   17  A    between atoms: _46  and  _49
REMARK   18  A    between atoms: _49  and  _50
REMARK   19  A    between atoms: _50  and  _51
REMARK   20  A    between atoms: _51  and  _52
REMARK   21  A    between atoms: _52  and  _53
REMARK                            x       y       z     vdW  Elec       q    Type
REMARK                         _______ _______ _______ _____ _____    ______ ____
ROOT
ATOM      1  C   GLN A   2       6.285  -2.144  21.317  0.00  0.00    +0.234 C 
ATOM      2  O   GLN A   2       5.525  -2.362  20.373  0.00  0.00    -0.274 OA
ATOM      3  N   SER A   3       6.518  -3.073  22.296  0.00  0.00    -0.301 N 
ATOM      4  H   SER A   3       7.158  -2.891  23.064  0.00  0.00    +0.150 HD
ENDROOT
BRANCH   3   5
ATOM      5  CA  SER A   3       5.776  -4.331  22.361  0.00  0.00    +0.184 C 
BRANCH   5   6
ATOM      6  C   SER A   3       5.187  -4.447  23.777  0.00  0.00    +0.236 C 
ATOM      7  O   SER A   3       4.051  -4.051  24.052  0.00  0.00    -0.274 OA
ATOM      8  N   LYS A   4       5.992  -5.061  24.706  0.00  0.00    -0.304 N 
ATOM      9  H   LYS A   4       6.906  -5.426  24.447  0.00  0.00    +0.149 HD
BRANCH   8  10
ATOM     10  CA  LYS A   4       5.564  -5.261  26.085  0.00  0.00    +0.136 C 
BRANCH  10  11
ATOM     11  C   LYS A   4       6.774  -4.992  26.965  0.00  0.00    +0.245 C 
ATOM     12  O   LYS A   4       7.738  -5.751  27.039  0.00  0.00    -0.299 OA
ENDBRANCH  10  11
BRANCH  10  13
ATOM     13  CB  LYS A   4       5.041  -6.687  26.298  0.00  0.00    +0.030 C 
BRANCH  13  14
ATOM     14  CG  LYS A   4       3.524  -6.813  26.122  0.00  0.00    +0.007 C 
BRANCH  14  15
ATOM     15  CD  LYS A   4       3.190  -7.700  24.920  0.00  0.00    +0.051 C 
BRANCH  15  16
ATOM     16  CE  LYS A   4       2.172  -7.043  24.000  0.00  0.00    +0.127 C 
BRANCH  16  17
ATOM     17  NZ  LYS A   4       2.821  -6.733  22.703  0.00  0.00    +0.219 N 
ATOM     18  HZ1 LYS A   4       2.255  -7.064  21.909  0.00  0.00    +0.199 HD
ATOM     19  HZ2 LYS A   4       3.742  -7.184  22.628  0.00  0.00    +0.199 HD
ATOM     20  HZ3 LYS A   4       2.964  -5.722  22.577  0.00  0.00    +0.199 HD
ENDBRANCH  16  17
ENDBRANCH  15  16
ENDBRANCH  14  15
ENDBRANCH  13  14
ENDBRANCH  10  13
ENDBRANCH   8  10
ENDBRANCH   5   6
BRANCH   5  21
ATOM     21  CB  SER A   3       6.647  -5.541  22.011  0.00  0.00    +0.187 C 
BRANCH  21  22
ATOM     22  OG  SER A   3       5.939  -6.765  22.205  0.00  0.00    -0.393 OA
ATOM     23  H   SER A   3       5.384  -6.645  22.997  0.00  0.00    +0.209 HD
ENDBRANCH  21  22
ENDBRANCH   5  21
ENDBRANCH   3   5
BRANCH   1  24
ATOM     24  CA  GLN A   2       6.998  -0.791  21.500  0.00  0.00    +0.159 C 
BRANCH  24  26
ATOM     25  C   VAL A   1       8.348  -0.178  23.490  0.00  0.00    +0.231 C 
ATOM     26  N   GLN A   2       8.079  -1.031  22.450  0.00  0.00    -0.303 N 
ATOM     27  H   GLN A   2       8.614  -1.889  22.334  0.00  0.00    +0.149 HD
ATOM     28  O   VAL A   1       7.723   0.869  23.658  0.00  0.00    -0.274 OA
BRANCH  25  29
ATOM     29  CA  VAL A   1       9.511  -0.625  24.415  0.00  0.00    +0.140 C 
BRANCH  29  30
ATOM     30  CB  VAL A   1       9.100  -1.807  25.327  0.00  0.00    +0.009 C 
ATOM     31  CG2 VAL A   1       7.646  -1.699  25.802  0.00  0.00    +0.009 C 
ATOM     32  CG1 VAL A   1       9.281  -3.157  24.615  0.00  0.00    +0.009 C 
ENDBRANCH  29  30
BRANCH  29  33
ATOM     33  N   VAL A   1       9.931   0.543  25.219  0.00  0.00    -0.320 NA
ATOM     34  H1  VAL A   1       9.100   1.072  25.487  0.00  0.00    +0.119 HD
ATOM     35  H2  VAL A   1      10.297   0.187  26.108  0.00  0.00    +0.119 HD
ENDBRANCH  29  33
ENDBRANCH  25  29
ENDBRANCH  24  26
BRANCH  24  36
ATOM     36  CB  GLN A   2       7.557  -0.275  20.167  0.00  0.00    +0.041 C 
BRANCH  36  37
ATOM     37  CG  GLN A   2       6.735   0.868  19.572  0.00  0.00    +0.098 C 
BRANCH  37  38
ATOM     38  CD  GLN A   2       6.243   0.556  18.176  0.00  0.00    +0.211 C 
ATOM     39  OE1 GLN A   2       6.372   1.332  17.234  0.00  0.00    -0.276 OA
ATOM     40  NE2 GLN A   2       5.667  -0.666  18.011  0.00  0.00    -0.329 N 
ATOM     41 HE21 GLN A   2       5.631  -1.366  18.740  0.00  0.00    +0.145 HD
ATOM     42 HE22 GLN A   2       5.350  -0.924  17.085  0.00  0.00    +0.145 HD
ENDBRANCH  37  38
ENDBRANCH  36  37
ENDBRANCH  24  36
ENDBRANCH   1  24
TORSDOF 19
ENDMDL
MODEL 19
REMARK VINA RESULT:      -5.9      3.393      6.886
REMARK  Name = VQSK-mmff94.pdb
REMARK  21 active torsions:
REMARK  status: ('A' for Active; 'I' for Inactive)
REMARK    1  A    between atoms: _1  and  _2
REMARK    2  A    between atoms: _2  and  _3
REMARK    3  A    between atoms: _2  and  _5
REMARK    4  A    between atoms: _5  and  _6
REMARK    5  A    between atoms: _5  and  _7
REMARK    6  A    between atoms: _17  and  _18
REMARK    7  A    between atoms: _18  and  _19
REMARK    8  A    between atoms: _18  and  _21
REMARK    9  A    between atoms: _21  and  _22
REMARK   10  A    between atoms: _22  and  _23
REMARK   11  A    between atoms: _34  and  _35
REMARK   12  A    between atoms: _35  and  _36
REMARK   13  A    between atoms: _35  and  _38
REMARK   14  A    between atoms: _38  and  _39
REMARK   15  A    between atoms: _45  and  _46
REMARK   16  A    between atoms: _46  and  _47
REMARK   17  A    between atoms: _46  and  _49
REMARK   18  A    between atoms: _49  and  _50
REMARK   19  A    between atoms: _50  and  _51
REMARK   20  A    between atoms: _51  and  _52
REMARK   21  A    between atoms: _52  and  _53
REMARK                            x       y       z     vdW  Elec       q    Type
REMARK                         _______ _______ _______ _____ _____    ______ ____
ROOT
ATOM      1  C   GLN A   2       5.894  -2.356  23.837  0.00  0.00    +0.234 C 
ATOM      2  O   GLN A   2       4.955  -2.849  24.462  0.00  0.00    -0.274 OA
ATOM      3  N   SER A   3       6.721  -1.413  24.388  0.00  0.00    -0.301 N 
ATOM      4  H   SER A   3       7.504  -1.021  23.871  0.00  0.00    +0.150 HD
ENDROOT
BRANCH   3   5
ATOM      5  CA  SER A   3       6.461  -0.829  25.702  0.00  0.00    +0.184 C 
BRANCH   5   6
ATOM      6  C   SER A   3       6.045   0.636  25.482  0.00  0.00    +0.236 C 
ATOM      7  O   SER A   3       5.205   1.195  26.192  0.00  0.00    -0.274 OA
ATOM      8  N   LYS A   4       6.702   1.294  24.470  0.00  0.00    -0.304 N 
ATOM      9  H   LYS A   4       7.428   0.829  23.928  0.00  0.00    +0.149 HD
BRANCH   8  10
ATOM     10  CA  LYS A   4       6.430   2.690  24.155  0.00  0.00    +0.136 C 
BRANCH  10  11
ATOM     11  C   LYS A   4       5.982   2.735  22.702  0.00  0.00    +0.245 C 
ATOM     12  O   LYS A   4       6.712   3.099  21.782  0.00  0.00    -0.299 OA
ENDBRANCH  10  11
BRANCH  10  13
ATOM     13  CB  LYS A   4       7.678   3.557  24.368  0.00  0.00    +0.030 C 
BRANCH  13  14
ATOM     14  CG  LYS A   4       8.954   2.740  24.594  0.00  0.00    +0.007 C 
BRANCH  14  15
ATOM     15  CD  LYS A   4       9.984   3.028  23.497  0.00  0.00    +0.051 C 
BRANCH  15  16
ATOM     16  CE  LYS A   4      10.188   1.826  22.587  0.00  0.00    +0.127 C 
BRANCH  16  17
ATOM     17  NZ  LYS A   4       9.344   1.986  21.378  0.00  0.00    +0.219 N 
ATOM     18  HZ1 LYS A   4       9.898   2.302  20.570  0.00  0.00    +0.199 HD
ATOM     19  HZ2 LYS A   4       8.602   2.682  21.529  0.00  0.00    +0.199 HD
ATOM     20  HZ3 LYS A   4       8.886   1.104  21.111  0.00  0.00    +0.199 HD
ENDBRANCH  16  17
ENDBRANCH  15  16
ENDBRANCH  14  15
ENDBRANCH  13  14
ENDBRANCH  10  13
ENDBRANCH   8  10
ENDBRANCH   5   6
BRANCH   5  21
ATOM     21  CB  SER A   3       7.668  -0.938  26.639  0.00  0.00    +0.187 C 
BRANCH  21  22
ATOM     22  OG  SER A   3       8.044   0.339  27.154  0.00  0.00    -0.393 OA
ATOM     23  H   SER A   3       8.242   0.903  26.385  0.00  0.00    +0.209 HD
ENDBRANCH  21  22
ENDBRANCH   5  21
ENDBRANCH   3   5
BRANCH   1  24
ATOM     24  CA  GLN A   2       6.188  -2.723  22.370  0.00  0.00    +0.159 C 
BRANCH  24  26
ATOM     25  C   VAL A   1       6.094  -1.231  20.390  0.00  0.00    +0.231 C 
ATOM     26  N   GLN A   2       6.470  -1.465  21.689  0.00  0.00    -0.303 N 
ATOM     27  H   GLN A   2       6.930  -0.738  22.232  0.00  0.00    +0.149 HD
ATOM     28  O   VAL A   1       5.538  -2.088  19.703  0.00  0.00    -0.274 OA
BRANCH  25  29
ATOM     29  CA  VAL A   1       6.447   0.181  19.854  0.00  0.00    +0.140 C 
BRANCH  29  30
ATOM     30  CB  VAL A   1       5.452   0.649  18.763  0.00  0.00    +0.009 C 
ATOM     31  CG2 VAL A   1       4.434   1.663  19.300  0.00  0.00    +0.009 C 
ATOM     32  CG1 VAL A   1       6.183   1.280  17.568  0.00  0.00    +0.009 C 
ENDBRANCH  29  30
BRANCH  29  33
ATOM     33  N   VAL A   1       7.828   0.139  19.327  0.00  0.00    -0.320 NA
ATOM     34  H1  VAL A   1       8.072  -0.832  19.124  0.00  0.00    +0.119 HD
ATOM     35  H2  VAL A   1       7.820   0.590  18.407  0.00  0.00    +0.119 HD
ENDBRANCH  29  33
ENDBRANCH  25  29
ENDBRANCH  24  26
BRANCH  24  36
ATOM     36  CB  GLN A   2       7.389  -3.672  22.267  0.00  0.00    +0.041 C 
BRANCH  36  37
ATOM     37  CG  GLN A   2       7.037  -5.127  22.581  0.00  0.00    +0.098 C 
BRANCH  37  38
ATOM     38  CD  GLN A   2       5.918  -5.649  21.707  0.00  0.00    +0.211 C 
ATOM     39  OE1 GLN A   2       5.964  -5.625  20.481  0.00  0.00    -0.276 OA
ATOM     40  NE2 GLN A   2       4.854  -6.184  22.365  0.00  0.00    -0.329 N 
ATOM     41 HE21 GLN A   2       4.825  -6.307  23.369  0.00  0.00    +0.145 HD
ATOM     42 HE22 GLN A   2       4.097  -6.570  21.815  0.00  0.00    +0.145 HD
ENDBRANCH  37  38
ENDBRANCH  36  37
ENDBRANCH  24  36
ENDBRANCH   1  24
TORSDOF 19
ENDMDL
MODEL 20
REMARK VINA RESULT:      -5.9      2.387      4.768
REMARK  Name = VQSK-mmff94.pdb
REMARK  21 active torsions:
REMARK  status: ('A' for Active; 'I' for Inactive)
REMARK    1  A    between atoms: _1  and  _2
REMARK    2  A    between atoms: _2  and  _3
REMARK    3  A    between atoms: _2  and  _5
REMARK    4  A    between atoms: _5  and  _6
REMARK    5  A    between atoms: _5  and  _7
REMARK    6  A    between atoms: _17  and  _18
REMARK    7  A    between atoms: _18  and  _19
REMARK    8  A    between atoms: _18  and  _21
REMARK    9  A    between atoms: _21  and  _22
REMARK   10  A    between atoms: _22  and  _23
REMARK   11  A    between atoms: _34  and  _35
REMARK   12  A    between atoms: _35  and  _36
REMARK   13  A    between atoms: _35  and  _38
REMARK   14  A    between atoms: _38  and  _39
REMARK   15  A    between atoms: _45  and  _46
REMARK   16  A    between atoms: _46  and  _47
REMARK   17  A    between atoms: _46  and  _49
REMARK   18  A    between atoms: _49  and  _50
REMARK   19  A    between atoms: _50  and  _51
REMARK   20  A    between atoms: _51  and  _52
REMARK   21  A    between atoms: _52  and  _53
REMARK                            x       y       z     vdW  Elec       q    Type
REMARK                         _______ _______ _______ _____ _____    ______ ____
ROOT
ATOM      1  C   GLN A   2       7.554   0.232  23.058  0.00  0.00    +0.234 C 
ATOM      2  O   GLN A   2       8.121   1.295  23.311  0.00  0.00    -0.274 OA
ATOM      3  N   SER A   3       7.016  -0.558  24.039  0.00  0.00    -0.301 N 
ATOM      4  H   SER A   3       6.536  -1.427  23.822  0.00  0.00    +0.150 HD
ENDROOT
BRANCH   3   5
ATOM      5  CA  SER A   3       7.202  -0.263  25.459  0.00  0.00    +0.184 C 
BRANCH   5   6
ATOM      6  C   SER A   3       8.004  -1.423  26.071  0.00  0.00    +0.236 C 
ATOM      7  O   SER A   3       8.898  -1.240  26.901  0.00  0.00    -0.274 OA
ATOM      8  N   LYS A   4       7.630  -2.682  25.666  0.00  0.00    -0.304 N 
ATOM      9  H   LYS A   4       6.856  -2.815  25.018  0.00  0.00    +0.149 HD
BRANCH   8  10
ATOM     10  CA  LYS A   4       8.285  -3.881  26.174  0.00  0.00    +0.136 C 
BRANCH  10  11
ATOM     11  C   LYS A   4       9.031  -4.505  25.005  0.00  0.00    +0.245 C 
ATOM     12  O   LYS A   4      10.078  -4.048  24.551  0.00  0.00    -0.299 OA
ENDBRANCH  10  11
BRANCH  10  13
ATOM     13  CB  LYS A   4       7.260  -4.865  26.753  0.00  0.00    +0.030 C 
BRANCH  13  14
ATOM     14  CG  LYS A   4       6.060  -4.177  27.413  0.00  0.00    +0.007 C 
BRANCH  14  15
ATOM     15  CD  LYS A   4       4.877  -5.143  27.528  0.00  0.00    +0.051 C 
BRANCH  15  16
ATOM     16  CE  LYS A   4       5.261  -6.556  27.114  0.00  0.00    +0.127 C 
BRANCH  16  17
ATOM     17  NZ  LYS A   4       5.314  -7.416  28.321  0.00  0.00    +0.219 N 
ATOM     18  HZ1 LYS A   4       5.943  -7.024  29.036  0.00  0.00    +0.199 HD
ATOM     19  HZ2 LYS A   4       5.660  -8.358  28.094  0.00  0.00    +0.199 HD
ATOM     20  HZ3 LYS A   4       4.388  -7.526  28.755  0.00  0.00    +0.199 HD
ENDBRANCH  16  17
ENDBRANCH  15  16
ENDBRANCH  14  15
ENDBRANCH  13  14
ENDBRANCH  10  13
ENDBRANCH   8  10
ENDBRANCH   5   6
BRANCH   5  21
ATOM     21  CB  SER A   3       5.872  -0.049  26.189  0.00  0.00    +0.187 C 
BRANCH  21  22
ATOM     22  OG  SER A   3       5.870  -0.690  27.464  0.00  0.00    -0.393 OA
ATOM     23  H   SER A   3       5.907   0.018  28.133  0.00  0.00    +0.209 HD
ENDBRANCH  21  22
ENDBRANCH   5  21
ENDBRANCH   3   5
BRANCH   1  24
ATOM     24  CA  GLN A   2       7.444  -0.320  21.624  0.00  0.00    +0.159 C 
BRANCH  24  26
ATOM     25  C   VAL A   1       6.759  -2.667  22.048  0.00  0.00    +0.231 C 
ATOM     26  N   GLN A   2       6.447  -1.383  21.677  0.00  0.00    -0.303 N 
ATOM     27  H   GLN A   2       5.485  -1.127  21.463  0.00  0.00    +0.149 HD
ATOM     28  O   VAL A   1       7.911  -3.012  22.311  0.00  0.00    -0.274 OA
BRANCH  25  29
ATOM     29  CA  VAL A   1       5.556  -3.645  22.082  0.00  0.00    +0.140 C 
BRANCH  29  30
ATOM     30  CB  VAL A   1       5.386  -4.301  23.474  0.00  0.00    +0.009 C 
ATOM     31  CG2 VAL A   1       3.937  -4.238  23.974  0.00  0.00    +0.009 C 
ATOM     32  CG1 VAL A   1       5.834  -5.770  23.465  0.00  0.00    +0.009 C 
ENDBRANCH  29  30
BRANCH  29  33
ATOM     33  N   VAL A   1       5.770  -4.671  21.038  0.00  0.00    -0.320 NA
ATOM     34  H1  VAL A   1       6.547  -4.376  20.444  0.00  0.00    +0.119 HD
ATOM     35  H2  VAL A   1       6.119  -5.515  21.503  0.00  0.00    +0.119 HD
ENDBRANCH  29  33
ENDBRANCH  25  29
ENDBRANCH  24  26
BRANCH  24  36
ATOM     36  CB  GLN A   2       7.010   0.777  20.641  0.00  0.00    +0.041 C 
BRANCH  36  37
ATOM     37  CG  GLN A   2       7.290   0.422  19.181  0.00  0.00    +0.098 C 
BRANCH  37  38
ATOM     38  CD  GLN A   2       6.020   0.282  18.370  0.00  0.00    +0.211 C 
ATOM     39  OE1 GLN A   2       5.859  -0.598  17.531  0.00  0.00    -0.276 OA
ATOM     40  NE2 GLN A   2       5.038   1.181  18.649  0.00  0.00    -0.329 N 
ATOM     41 HE21 GLN A   2       5.100   1.858  19.399  0.00  0.00    +0.145 HD
ATOM     42 HE22 GLN A   2       4.162   1.104  18.148  0.00  0.00    +0.145 HD
ENDBRANCH  37  38
ENDBRANCH  36  37
ENDBRANCH  24  36
ENDBRANCH   1  24
TORSDOF 19
ENDMDL
