REMARK  Name = VQSK-mmff94.pdb
REMARK  21 active torsions:
REMARK  status: ('A' for Active; 'I' for Inactive)
REMARK    1  A    between atoms: _1  and  _2
REMARK    2  A    between atoms: _2  and  _3
REMARK    3  A    between atoms: _2  and  _5
REMARK    4  A    between atoms: _5  and  _6
REMARK    5  A    between atoms: _5  and  _7
REMARK    6  A    between atoms: _17  and  _18
REMARK    7  A    between atoms: _18  and  _19
REMARK    8  A    between atoms: _18  and  _21
REMARK    9  A    between atoms: _21  and  _22
REMARK   10  A    between atoms: _22  and  _23
REMARK   11  A    between atoms: _34  and  _35
REMARK   12  A    between atoms: _35  and  _36
REMARK   13  A    between atoms: _35  and  _38
REMARK   14  A    between atoms: _38  and  _39
REMARK   15  A    between atoms: _45  and  _46
REMARK   16  A    between atoms: _46  and  _47
REMARK   17  A    between atoms: _46  and  _49
REMARK   18  A    between atoms: _49  and  _50
REMARK   19  A    between atoms: _50  and  _51
REMARK   20  A    between atoms: _51  and  _52
REMARK   21  A    between atoms: _52  and  _53
REMARK                            x       y       z     vdW  Elec       q    Type
REMARK                         _______ _______ _______ _____ _____    ______ ____
ROOT
ATOM      1  C   GLN A   2       4.500   1.957  -1.104  0.00  0.00    +0.234 C 
ATOM      2  O   GLN A   2       3.749   2.849  -1.499  0.00  0.00    -0.274 OA
ATOM      3  N   SER A   3       5.742   2.224  -0.592  0.00  0.00    -0.301 N 
ATOM      4  H   SER A   3       6.351   1.484  -0.254  0.00  0.00    +0.150 HD
ENDROOT
BRANCH   3   5
ATOM      5  CA  SER A   3       6.313   3.570  -0.608  0.00  0.00    +0.184 C 
BRANCH   5   6
ATOM      6  C   SER A   3       7.843   3.423  -0.557  0.00  0.00    +0.236 C 
ATOM      7  O   SER A   3       8.393   2.344  -0.322  0.00  0.00    -0.274 OA
ATOM      8  N   LYS A   4       8.559   4.563  -0.833  0.00  0.00    -0.304 N 
ATOM      9  H   LYS A   4       8.086   5.432  -1.074  0.00  0.00    +0.149 HD
BRANCH   8  10
ATOM     10  CA  LYS A   4      10.016   4.575  -0.842  0.00  0.00    +0.136 C 
BRANCH  10  11
ATOM     11  C   LYS A   4      10.445   6.031  -0.745  0.00  0.00    +0.245 C 
ATOM     12  O   LYS A   4       9.775   6.963  -1.185  0.00  0.00    -0.299 OA
ENDBRANCH  10  11
BRANCH  10  13
ATOM     13  CB  LYS A   4      10.565   3.930  -2.121  0.00  0.00    +0.030 C 
BRANCH  13  14
ATOM     14  CG  LYS A   4      12.081   3.707  -2.088  0.00  0.00    +0.007 C 
BRANCH  14  15
ATOM     15  CD  LYS A   4      12.540   2.921  -3.320  0.00  0.00    +0.051 C 
BRANCH  15  16
ATOM     16  CE  LYS A   4      14.044   2.695  -3.316  0.00  0.00    +0.127 C 
BRANCH  16  17
ATOM     17  NZ  LYS A   4      14.415   1.886  -4.502  0.00  0.00    +0.219 N 
ATOM     18  HZ1 LYS A   4      13.954   0.965  -4.490  0.00  0.00    +0.199 HD
ATOM     19  HZ2 LYS A   4      15.429   1.718  -4.538  0.00  0.00    +0.199 HD
ATOM     20  HZ3 LYS A   4      14.150   2.350  -5.381  0.00  0.00    +0.199 HD
ENDBRANCH  16  17
ENDBRANCH  15  16
ENDBRANCH  14  15
ENDBRANCH  13  14
ENDBRANCH  10  13
ENDBRANCH   8  10
ENDBRANCH   5   6
BRANCH   5  21
ATOM     21  CB  SER A   3       5.791   4.439   0.540  0.00  0.00    +0.187 C 
BRANCH  21  22
ATOM     22  OG  SER A   3       5.994   3.808   1.804  0.00  0.00    -0.393 OA
ATOM     23  H   SER A   3       5.420   3.021   1.819  0.00  0.00    +0.209 HD
ENDBRANCH  21  22
ENDBRANCH   5  21
ENDBRANCH   3   5
BRANCH   1  24
ATOM     24  CA  GLN A   2       4.125   0.466  -1.198  0.00  0.00    +0.159 C 
BRANCH  24  26
ATOM     25  C   VAL A   1       1.968  -0.678  -0.756  0.00  0.00    +0.231 C 
ATOM     26  N   GLN A   2       2.667   0.417  -1.198  0.00  0.00    -0.303 N 
ATOM     27  H   GLN A   2       2.176   1.253  -1.507  0.00  0.00    +0.149 HD
ATOM     28  O   VAL A   1       2.529  -1.706  -0.378  0.00  0.00    -0.274 OA
BRANCH  25  29
ATOM     29  CA  VAL A   1       0.425  -0.525  -0.797  0.00  0.00    +0.140 C 
BRANCH  29  30
ATOM     30  CB  VAL A   1      -0.132   0.054   0.527  0.00  0.00    +0.009 C 
ATOM     31  CG2 VAL A   1       0.425   1.450   0.832  0.00  0.00    +0.009 C 
ATOM     32  CG1 VAL A   1      -1.666   0.136   0.505  0.00  0.00    +0.009 C 
ENDBRANCH  29  30
BRANCH  29  33
ATOM     33  N   VAL A   1      -0.160  -1.853  -1.081  0.00  0.00    -0.320 NA
ATOM     34  H1  VAL A   1       0.269  -2.225  -1.929  0.00  0.00    +0.119 HD
ATOM     35  H2  VAL A   1       0.154  -2.491  -0.343  0.00  0.00    +0.119 HD
ENDBRANCH  29  33
ENDBRANCH  25  29
ENDBRANCH  24  26
BRANCH  24  36
ATOM     36  CB  GLN A   2       4.685  -0.165  -2.480  0.00  0.00    +0.041 C 
BRANCH  36  37
ATOM     37  CG  GLN A   2       6.139  -0.618  -2.343  0.00  0.00    +0.098 C 
BRANCH  37  38
ATOM     38  CD  GLN A   2       6.726  -1.072  -3.661  0.00  0.00    +0.211 C 
ATOM     39  OE1 GLN A   2       7.720  -0.555  -4.161  0.00  0.00    -0.276 OA
ATOM     40  NE2 GLN A   2       6.100  -2.123  -4.257  0.00  0.00    -0.329 N 
ATOM     41 HE21 GLN A   2       5.339  -2.633  -3.828  0.00  0.00    +0.145 HD
ATOM     42 HE22 GLN A   2       6.479  -2.475  -5.127  0.00  0.00    +0.145 HD
ENDBRANCH  37  38
ENDBRANCH  36  37
ENDBRANCH  24  36
ENDBRANCH   1  24
TORSDOF 19
