REMARK  Name = KLQNNE-mmff94.pdb
REMARK  31 active torsions:
REMARK  status: ('A' for Active; 'I' for Inactive)
REMARK    1  A    between atoms: _1  and  _2
REMARK    2  A    between atoms: _2  and  _3
REMARK    3  A    between atoms: _2  and  _5
REMARK    4  A    between atoms: _5  and  _6
REMARK    5  A    between atoms: _6  and  _7
REMARK    6  A    between atoms: _7  and  _8
REMARK    7  A    between atoms: _8  and  _9
REMARK    8  A    between atoms: _23  and  _24
REMARK    9  A    between atoms: _24  and  _25
REMARK   10  A    between atoms: _24  and  _27
REMARK   11  A    between atoms: _27  and  _28
REMARK   12  A    between atoms: _28  and  _29
REMARK   13  A    between atoms: _28  and  _30
REMARK   14  A    between atoms: _42  and  _43
REMARK   15  A    between atoms: _43  and  _44
REMARK   16  A    between atoms: _43  and  _46
REMARK   17  A    between atoms: _46  and  _47
REMARK   18  A    between atoms: _47  and  _48
REMARK   19  A    between atoms: _59  and  _60
REMARK   20  A    between atoms: _60  and  _61
REMARK   21  A    between atoms: _60  and  _63
REMARK   22  A    between atoms: _63  and  _64
REMARK   23  A    between atoms: _73  and  _74
REMARK   24  A    between atoms: _74  and  _75
REMARK   25  A    between atoms: _74  and  _77
REMARK   26  A    between atoms: _77  and  _78
REMARK   27  A    between atoms: _87  and  _88
REMARK   28  A    between atoms: _88  and  _89
REMARK   29  A    between atoms: _88  and  _91
REMARK   30  A    between atoms: _91  and  _92
REMARK   31  A    between atoms: _92  and  _93
REMARK                            x       y       z     vdW  Elec       q    Type
REMARK                         _______ _______ _______ _____ _____    ______ ____
ROOT
ATOM      1  C   GLN A   3       7.361   1.513  -1.176  0.00  0.00    +0.234 C 
ATOM      2  O   GLN A   3       7.896   0.619  -0.522  0.00  0.00    -0.274 OA
ATOM      3  N   ASN A   4       8.068   2.489  -1.830  0.00  0.00    -0.302 N 
ATOM      4  H   ASN A   4       7.602   3.207  -2.375  0.00  0.00    +0.150 HD
ENDROOT
BRANCH   3   5
ATOM      5  CA  ASN A   4       9.531   2.477  -1.895  0.00  0.00    +0.168 C 
BRANCH   5   6
ATOM      6  C   ASN A   4       9.976   3.945  -1.901  0.00  0.00    +0.234 C 
ATOM      7  N   ASN A   5      11.221   4.177  -1.379  0.00  0.00    -0.302 N 
ATOM      8  H   ASN A   5      11.808   3.412  -1.050  0.00  0.00    +0.150 HD
ATOM      9  O   ASN A   4       9.271   4.836  -2.376  0.00  0.00    -0.274 OA
BRANCH   7  10
ATOM     10  CA  ASN A   5      11.814   5.511  -1.289  0.00  0.00    +0.168 C 
BRANCH  10  11
ATOM     11  C   ASN A   5      13.339   5.307  -1.265  0.00  0.00    +0.234 C 
ATOM     12  N   GLU A   6      14.077   6.410  -1.603  0.00  0.00    -0.304 N 
ATOM     13  H   GLU A   6      13.634   7.276  -1.893  0.00  0.00    +0.149 HD
ATOM     14  O   ASN A   5      13.832   4.235  -0.915  0.00  0.00    -0.274 OA
BRANCH  12  15
ATOM     15  CA  GLU A   6      15.541   6.408  -1.658  0.00  0.00    +0.136 C 
BRANCH  15  16
ATOM     16  C   GLU A   6      15.976   7.864  -1.517  0.00  0.00    +0.245 C 
ATOM     17  O   GLU A   6      15.182   8.801  -1.409  0.00  0.00    -0.299 OA
ENDBRANCH  15  16
BRANCH  15  18
ATOM     18  CB  GLU A   6      16.046   5.817  -2.972  0.00  0.00    +0.035 C 
BRANCH  18  19
ATOM     19  CG  GLU A   6      17.552   5.569  -2.959  0.00  0.00    +0.054 C 
BRANCH  19  20
ATOM     20  CD  GLU A   6      18.089   4.917  -4.235  0.00  0.00    +0.042 C 
ATOM     21  OE2 GLU A   6      19.316   4.631  -4.184  0.00  0.00    -0.550 OA
ATOM     22  OE1 GLU A   6      17.257   4.756  -5.169  0.00  0.00    -0.550 OA
ENDBRANCH  19  20
ENDBRANCH  18  19
ENDBRANCH  15  18
ENDBRANCH  12  15
ENDBRANCH  10  11
BRANCH  10  23
ATOM     23  CB  ASN A   5      11.390   6.250  -0.021  0.00  0.00    +0.127 C 
BRANCH  23  24
ATOM     24  CG  ASN A   5       9.934   6.655  -0.027  0.00  0.00    +0.213 C 
ATOM     25  OD1 ASN A   5       9.084   6.145   0.700  0.00  0.00    -0.276 OA
ATOM     26  ND2 ASN A   5       9.606   7.674  -0.874  0.00  0.00    -0.329 N 
ATOM     27 HD21 ASN A   5       8.619   7.872  -0.968  0.00  0.00    +0.145 HD
ATOM     28 HD22 ASN A   5      10.189   7.923  -1.662  0.00  0.00    +0.145 HD
ENDBRANCH  23  24
ENDBRANCH  10  23
ENDBRANCH   7  10
ENDBRANCH   5   6
BRANCH   5  29
ATOM     29  CB  ASN A   4      10.056   1.803  -3.161  0.00  0.00    +0.127 C 
BRANCH  29  30
ATOM     30  CG  ASN A   4       9.816   0.316  -3.132  0.00  0.00    +0.213 C 
ATOM     31  ND2 ASN A   4      10.800  -0.428  -2.554  0.00  0.00    -0.329 N 
ATOM     32 HD21 ASN A   4      11.732  -0.074  -2.382  0.00  0.00    +0.145 HD
ATOM     33 HD22 ASN A   4      10.683  -1.434  -2.568  0.00  0.00    +0.145 HD
ATOM     34  OD1 ASN A   4       8.792  -0.204  -3.564  0.00  0.00    -0.276 OA
ENDBRANCH  29  30
ENDBRANCH   5  29
ENDBRANCH   3   5
BRANCH   1  35
ATOM     35  CA  GLN A   3       5.830   1.618  -1.285  0.00  0.00    +0.159 C 
BRANCH  35  37
ATOM     36  C   LEU A   2       4.070  -0.050  -1.857  0.00  0.00    +0.234 C 
ATOM     37  N   GLN A   3       5.342   0.247  -1.436  0.00  0.00    -0.302 N 
ATOM     38  H   GLN A   3       6.019  -0.496  -1.266  0.00  0.00    +0.150 HD
ATOM     39  O   LEU A   2       3.231   0.827  -2.081  0.00  0.00    -0.274 OA
BRANCH  36  40
ATOM     40  CA  LEU A   2       3.756  -1.561  -1.999  0.00  0.00    +0.159 C 
BRANCH  40  43
ATOM     41  C   LYS A   1       1.476  -2.213  -1.263  0.00  0.00    +0.230 C 
ATOM     42  O   LYS A   1       1.876  -2.843  -0.287  0.00  0.00    -0.274 OA
ATOM     43  N   LEU A   2       2.312  -1.677  -2.217  0.00  0.00    -0.303 N 
ATOM     44  H   LEU A   2       1.924  -1.016  -2.881  0.00  0.00    +0.149 HD
BRANCH  41  45
ATOM     45  CA  LYS A   1      -0.024  -1.906  -1.484  0.00  0.00    +0.138 C 
BRANCH  45  46
ATOM     46  N   LYS A   1      -0.795  -3.156  -1.382  0.00  0.00    -0.320 NA
ATOM     47  H1  LYS A   1      -0.464  -3.805  -2.099  0.00  0.00    +0.119 HD
ATOM     48  H2  LYS A   1      -0.540  -3.610  -0.500  0.00  0.00    +0.119 HD
ENDBRANCH  45  46
BRANCH  45  49
ATOM     49  CB  LYS A   1      -0.510  -0.904  -0.418  0.00  0.00    +0.028 C 
BRANCH  49  50
ATOM     50  CG  LYS A   1       0.263   0.414  -0.501  0.00  0.00    +0.007 C 
BRANCH  50  51
ATOM     51  CD  LYS A   1      -0.066   1.412   0.610  0.00  0.00    +0.051 C 
BRANCH  51  52
ATOM     52  CE  LYS A   1       0.939   2.556   0.529  0.00  0.00    +0.127 C 
BRANCH  52  53
ATOM     53  NZ  LYS A   1       0.827   3.452   1.694  0.00  0.00    +0.219 N 
ATOM     54  HZ1 LYS A   1       0.848   2.941   2.583  0.00  0.00    +0.199 HD
ATOM     55  HZ2 LYS A   1       1.675   4.060   1.697  0.00  0.00    +0.199 HD
ATOM     56  HZ3 LYS A   1      -0.003   4.052   1.664  0.00  0.00    +0.199 HD
ENDBRANCH  52  53
ENDBRANCH  51  52
ENDBRANCH  50  51
ENDBRANCH  49  50
ENDBRANCH  45  49
ENDBRANCH  41  45
ENDBRANCH  40  43
BRANCH  40  57
ATOM     57  CB  LEU A   2       4.537  -2.183  -3.162  0.00  0.00    +0.034 C 
BRANCH  57  58
ATOM     58  CG  LEU A   2       4.317  -3.703  -3.321  0.00  0.00    -0.015 C 
ATOM     59  CD2 LEU A   2       4.842  -4.493  -2.120  0.00  0.00    +0.007 C 
ATOM     60  CD1 LEU A   2       4.996  -4.198  -4.600  0.00  0.00    +0.007 C 
ENDBRANCH  57  58
ENDBRANCH  40  57
ENDBRANCH  36  40
ENDBRANCH  35  37
BRANCH  35  61
ATOM     61  CB  GLN A   3       5.247   2.267  -0.021  0.00  0.00    +0.041 C 
BRANCH  61  62
ATOM     62  CG  GLN A   3       5.315   3.792  -0.043  0.00  0.00    +0.098 C 
BRANCH  62  63
ATOM     63  CD  GLN A   3       4.624   4.366   1.181  0.00  0.00    +0.211 C 
ATOM     64  NE2 GLN A   3       5.458   4.971   2.072  0.00  0.00    -0.329 N 
ATOM     65 HE21 GLN A   3       5.089   5.405   2.907  0.00  0.00    +0.145 HD
ATOM     66 HE22 GLN A   3       6.445   5.132   1.877  0.00  0.00    +0.145 HD
ATOM     67  OE1 GLN A   3       3.411   4.273   1.390  0.00  0.00    -0.276 OA
ENDBRANCH  62  63
ENDBRANCH  61  62
ENDBRANCH  35  61
ENDBRANCH   1  35
TORSDOF 29
