MODEL 1
REMARK VINA RESULT:      -5.9      0.000      0.000
REMARK  Name = KLQNNE-mmff94.pdb
REMARK  31 active torsions:
REMARK  status: ('A' for Active; 'I' for Inactive)
REMARK    1  A    between atoms: _1  and  _2
REMARK    2  A    between atoms: _2  and  _3
REMARK    3  A    between atoms: _2  and  _5
REMARK    4  A    between atoms: _5  and  _6
REMARK    5  A    between atoms: _6  and  _7
REMARK    6  A    between atoms: _7  and  _8
REMARK    7  A    between atoms: _8  and  _9
REMARK    8  A    between atoms: _23  and  _24
REMARK    9  A    between atoms: _24  and  _25
REMARK   10  A    between atoms: _24  and  _27
REMARK   11  A    between atoms: _27  and  _28
REMARK   12  A    between atoms: _28  and  _29
REMARK   13  A    between atoms: _28  and  _30
REMARK   14  A    between atoms: _42  and  _43
REMARK   15  A    between atoms: _43  and  _44
REMARK   16  A    between atoms: _43  and  _46
REMARK   17  A    between atoms: _46  and  _47
REMARK   18  A    between atoms: _47  and  _48
REMARK   19  A    between atoms: _59  and  _60
REMARK   20  A    between atoms: _60  and  _61
REMARK   21  A    between atoms: _60  and  _63
REMARK   22  A    between atoms: _63  and  _64
REMARK   23  A    between atoms: _73  and  _74
REMARK   24  A    between atoms: _74  and  _75
REMARK   25  A    between atoms: _74  and  _77
REMARK   26  A    between atoms: _77  and  _78
REMARK   27  A    between atoms: _87  and  _88
REMARK   28  A    between atoms: _88  and  _89
REMARK   29  A    between atoms: _88  and  _91
REMARK   30  A    between atoms: _91  and  _92
REMARK   31  A    between atoms: _92  and  _93
REMARK                            x       y       z     vdW  Elec       q    Type
REMARK                         _______ _______ _______ _____ _____    ______ ____
ROOT
ATOM      1  C   GLN A   3       6.206   2.327  21.997  0.00  0.00    +0.234 C 
ATOM      2  O   GLN A   3       5.244   2.316  21.230  0.00  0.00    -0.274 OA
ATOM      3  N   ASN A   4       7.105   1.296  22.087  0.00  0.00    -0.302 N 
ATOM      4  H   ASN A   4       7.898   1.336  22.718  0.00  0.00    +0.150 HD
ENDROOT
BRANCH   3   5
ATOM      5  CA  ASN A   4       7.055   0.141  21.187  0.00  0.00    +0.168 C 
BRANCH   5   6
ATOM      6  C   ASN A   4       8.183  -0.800  21.627  0.00  0.00    +0.234 C 
ATOM      7  N   ASN A   5       7.962  -1.461  22.806  0.00  0.00    -0.302 N 
ATOM      8  H   ASN A   5       7.089  -1.351  23.319  0.00  0.00    +0.150 HD
ATOM      9  O   ASN A   4       9.194  -0.967  20.943  0.00  0.00    -0.274 OA
BRANCH   7  10
ATOM     10  CA  ASN A   5       8.926  -2.392  23.393  0.00  0.00    +0.168 C 
BRANCH  10  11
ATOM     11  C   ASN A   5       8.197  -3.740  23.533  0.00  0.00    +0.234 C 
ATOM     12  N   GLU A   6       6.897  -3.744  23.103  0.00  0.00    -0.304 N 
ATOM     13  H   GLU A   6       6.448  -2.898  22.765  0.00  0.00    +0.149 HD
ATOM     14  O   ASN A   5       8.780  -4.737  23.957  0.00  0.00    -0.274 OA
BRANCH  12  15
ATOM     15  CA  GLU A   6       6.033  -4.925  23.174  0.00  0.00    +0.136 C 
BRANCH  15  16
ATOM     16  C   GLU A   6       6.162  -5.630  21.827  0.00  0.00    +0.245 C 
ATOM     17  O   GLU A   6       5.952  -5.074  20.747  0.00  0.00    -0.299 OA
ENDBRANCH  15  16
BRANCH  15  18
ATOM     18  CB  GLU A   6       4.581  -4.535  23.443  0.00  0.00    +0.035 C 
BRANCH  18  19
ATOM     19  CG  GLU A   6       4.046  -5.142  24.737  0.00  0.00    +0.054 C 
BRANCH  19  20
ATOM     20  CD  GLU A   6       4.329  -6.638  24.890  0.00  0.00    +0.042 C 
ATOM     21  OE2 GLU A   6       5.097  -6.915  25.851  0.00  0.00    -0.550 OA
ATOM     22  OE1 GLU A   6       3.778  -7.397  24.047  0.00  0.00    -0.550 OA
ENDBRANCH  19  20
ENDBRANCH  18  19
ENDBRANCH  15  18
ENDBRANCH  12  15
ENDBRANCH  10  11
BRANCH  10  23
ATOM     23  CB  ASN A   5       9.405  -1.939  24.771  0.00  0.00    +0.127 C 
BRANCH  23  24
ATOM     24  CG  ASN A   5       9.277  -0.448  24.984  0.00  0.00    +0.213 C 
ATOM     25  OD1 ASN A   5       8.202   0.148  24.987  0.00  0.00    -0.276 OA
ATOM     26  ND2 ASN A   5      10.444   0.218  25.223  0.00  0.00    -0.329 N 
ATOM     27 HD21 ASN A   5      10.380   1.227  25.252  0.00  0.00    +0.145 HD
ATOM     28 HD22 ASN A   5      11.342  -0.166  24.961  0.00  0.00    +0.145 HD
ENDBRANCH  23  24
ENDBRANCH  10  23
ENDBRANCH   7  10
ENDBRANCH   5   6
BRANCH   5  29
ATOM     29  CB  ASN A   4       7.282   0.526  19.726  0.00  0.00    +0.127 C 
BRANCH  29  30
ATOM     30  CG  ASN A   4       6.192  -0.017  18.839  0.00  0.00    +0.213 C 
ATOM     31  ND2 ASN A   4       4.936   0.437  19.104  0.00  0.00    -0.329 N 
ATOM     32 HD21 ASN A   4       4.685   0.897  19.970  0.00  0.00    +0.145 HD
ATOM     33 HD22 ASN A   4       4.181   0.048  18.553  0.00  0.00    +0.145 HD
ATOM     34  OD1 ASN A   4       6.409  -0.791  17.912  0.00  0.00    -0.276 OA
ENDBRANCH  29  30
ENDBRANCH   5  29
ENDBRANCH   3   5
BRANCH   1  35
ATOM     35  CA  GLN A   3       6.456   3.509  22.950  0.00  0.00    +0.159 C 
BRANCH  35  37
ATOM     36  C   LEU A   2       5.349   2.963  25.114  0.00  0.00    +0.234 C 
ATOM     37  N   GLN A   3       6.454   2.945  24.300  0.00  0.00    -0.302 N 
ATOM     38  H   GLN A   3       7.309   2.477  24.597  0.00  0.00    +0.150 HD
ATOM     39  O   LEU A   2       4.296   3.512  24.780  0.00  0.00    -0.274 OA
BRANCH  36  40
ATOM     40  CA  LEU A   2       5.530   2.274  26.491  0.00  0.00    +0.159 C 
BRANCH  40  43
ATOM     41  C   LYS A   1       4.689  -0.055  26.312  0.00  0.00    +0.230 C 
ATOM     42  O   LYS A   1       3.606   0.203  26.831  0.00  0.00    -0.274 OA
ATOM     43  N   LEU A   2       5.727   0.846  26.230  0.00  0.00    -0.303 N 
ATOM     44  H   LEU A   2       6.511   0.625  25.626  0.00  0.00    +0.149 HD
BRANCH  41  45
ATOM     45  CA  LYS A   1       4.974  -1.418  25.639  0.00  0.00    +0.138 C 
BRANCH  45  46
ATOM     46  N   LYS A   1       5.483  -1.189  24.277  0.00  0.00    -0.320 NA
ATOM     47  H1  LYS A   1       4.870  -1.666  23.612  0.00  0.00    +0.119 HD
ATOM     48  H2  LYS A   1       5.360  -0.196  24.059  0.00  0.00    +0.119 HD
ENDBRANCH  45  46
BRANCH  45  49
ATOM     49  CB  LYS A   1       6.018  -2.196  26.464  0.00  0.00    +0.028 C 
BRANCH  49  50
ATOM     50  CG  LYS A   1       5.350  -3.055  27.539  0.00  0.00    +0.007 C 
BRANCH  50  51
ATOM     51  CD  LYS A   1       6.015  -4.412  27.770  0.00  0.00    +0.051 C 
BRANCH  51  52
ATOM     52  CE  LYS A   1       7.342  -4.420  27.019  0.00  0.00    +0.127 C 
BRANCH  52  53
ATOM     53  NZ  LYS A   1       7.810  -5.796  26.772  0.00  0.00    +0.219 N 
ATOM     54  HZ1 LYS A   1       7.747  -6.386  27.608  0.00  0.00    +0.199 HD
ATOM     55  HZ2 LYS A   1       7.160  -6.222  26.076  0.00  0.00    +0.199 HD
ATOM     56  HZ3 LYS A   1       8.762  -5.837  26.395  0.00  0.00    +0.199 HD
ENDBRANCH  52  53
ENDBRANCH  51  52
ENDBRANCH  50  51
ENDBRANCH  49  50
ENDBRANCH  45  49
ENDBRANCH  41  45
ENDBRANCH  40  43
BRANCH  40  57
ATOM     57  CB  LEU A   2       6.724   2.862  27.252  0.00  0.00    +0.034 C 
BRANCH  57  58
ATOM     58  CG  LEU A   2       6.528   4.330  27.686  0.00  0.00    -0.015 C 
ATOM     59  CD2 LEU A   2       7.479   5.282  26.957  0.00  0.00    +0.007 C 
ATOM     60  CD1 LEU A   2       6.729   4.459  29.198  0.00  0.00    +0.007 C 
ENDBRANCH  57  58
ENDBRANCH  40  57
ENDBRANCH  36  40
ENDBRANCH  35  37
BRANCH  35  61
ATOM     61  CB  GLN A   3       7.806   4.170  22.639  0.00  0.00    +0.041 C 
BRANCH  61  62
ATOM     62  CG  GLN A   3       8.842   3.968  23.742  0.00  0.00    +0.098 C 
BRANCH  62  63
ATOM     63  CD  GLN A   3      10.037   3.200  23.206  0.00  0.00    +0.211 C 
ATOM     64  NE2 GLN A   3      11.208   3.895  23.211  0.00  0.00    -0.329 N 
ATOM     65 HE21 GLN A   3      12.065   3.461  22.896  0.00  0.00    +0.145 HD
ATOM     66 HE22 GLN A   3      11.300   4.811  23.650  0.00  0.00    +0.145 HD
ATOM     67  OE1 GLN A   3       9.970   2.049  22.763  0.00  0.00    -0.276 OA
ENDBRANCH  62  63
ENDBRANCH  61  62
ENDBRANCH  35  61
ENDBRANCH   1  35
TORSDOF 29
ENDMDL
MODEL 2
REMARK VINA RESULT:      -5.6      1.916      6.475
REMARK  Name = KLQNNE-mmff94.pdb
REMARK  31 active torsions:
REMARK  status: ('A' for Active; 'I' for Inactive)
REMARK    1  A    between atoms: _1  and  _2
REMARK    2  A    between atoms: _2  and  _3
REMARK    3  A    between atoms: _2  and  _5
REMARK    4  A    between atoms: _5  and  _6
REMARK    5  A    between atoms: _6  and  _7
REMARK    6  A    between atoms: _7  and  _8
REMARK    7  A    between atoms: _8  and  _9
REMARK    8  A    between atoms: _23  and  _24
REMARK    9  A    between atoms: _24  and  _25
REMARK   10  A    between atoms: _24  and  _27
REMARK   11  A    between atoms: _27  and  _28
REMARK   12  A    between atoms: _28  and  _29
REMARK   13  A    between atoms: _28  and  _30
REMARK   14  A    between atoms: _42  and  _43
REMARK   15  A    between atoms: _43  and  _44
REMARK   16  A    between atoms: _43  and  _46
REMARK   17  A    between atoms: _46  and  _47
REMARK   18  A    between atoms: _47  and  _48
REMARK   19  A    between atoms: _59  and  _60
REMARK   20  A    between atoms: _60  and  _61
REMARK   21  A    between atoms: _60  and  _63
REMARK   22  A    between atoms: _63  and  _64
REMARK   23  A    between atoms: _73  and  _74
REMARK   24  A    between atoms: _74  and  _75
REMARK   25  A    between atoms: _74  and  _77
REMARK   26  A    between atoms: _77  and  _78
REMARK   27  A    between atoms: _87  and  _88
REMARK   28  A    between atoms: _88  and  _89
REMARK   29  A    between atoms: _88  and  _91
REMARK   30  A    between atoms: _91  and  _92
REMARK   31  A    between atoms: _92  and  _93
REMARK                            x       y       z     vdW  Elec       q    Type
REMARK                         _______ _______ _______ _____ _____    ______ ____
ROOT
ATOM      1  C   GLN A   3       8.791  -2.353  24.199  0.00  0.00    +0.234 C 
ATOM      2  O   GLN A   3       9.715  -2.991  23.698  0.00  0.00    -0.274 OA
ATOM      3  N   ASN A   4       7.746  -1.848  23.468  0.00  0.00    -0.302 N 
ATOM      4  H   ASN A   4       6.988  -1.337  23.908  0.00  0.00    +0.150 HD
ENDROOT
BRANCH   3   5
ATOM      5  CA  ASN A   4       7.591  -2.128  22.039  0.00  0.00    +0.168 C 
BRANCH   5   6
ATOM      6  C   ASN A   4       7.784  -0.792  21.312  0.00  0.00    +0.234 C 
ATOM      7  N   ASN A   5       6.687   0.029  21.303  0.00  0.00    -0.302 N 
ATOM      8  H   ASN A   5       5.827  -0.232  21.783  0.00  0.00    +0.150 HD
ATOM      9  O   ASN A   4       8.862  -0.476  20.807  0.00  0.00    -0.274 OA
BRANCH   7  10
ATOM     10  CA  ASN A   5       6.674   1.339  20.652  0.00  0.00    +0.168 C 
BRANCH  10  11
ATOM     11  C   ASN A   5       6.413   2.372  21.761  0.00  0.00    +0.234 C 
ATOM     12  N   GLU A   6       7.507   3.103  22.143  0.00  0.00    -0.304 N 
ATOM     13  H   GLU A   6       8.425   2.928  21.748  0.00  0.00    +0.149 HD
ATOM     14  O   ASN A   5       5.283   2.544  22.217  0.00  0.00    -0.274 OA
BRANCH  12  15
ATOM     15  CA  GLU A   6       7.463   4.119  23.197  0.00  0.00    +0.136 C 
BRANCH  15  16
ATOM     16  C   GLU A   6       7.819   5.444  22.528  0.00  0.00    +0.245 C 
ATOM     17  O   GLU A   6       7.265   5.859  21.508  0.00  0.00    -0.299 OA
ENDBRANCH  15  16
BRANCH  15  18
ATOM     18  CB  GLU A   6       8.446   3.797  24.320  0.00  0.00    +0.035 C 
BRANCH  18  19
ATOM     19  CG  GLU A   6       9.591   2.903  23.853  0.00  0.00    +0.054 C 
BRANCH  19  20
ATOM     20  CD  GLU A   6       9.437   1.433  24.247  0.00  0.00    +0.042 C 
ATOM     21  OE2 GLU A   6      10.515   0.883  24.599  0.00  0.00    -0.550 OA
ATOM     22  OE1 GLU A   6       8.272   0.955  24.165  0.00  0.00    -0.550 OA
ENDBRANCH  19  20
ENDBRANCH  18  19
ENDBRANCH  15  18
ENDBRANCH  12  15
ENDBRANCH  10  11
BRANCH  10  23
ATOM     23  CB  ASN A   5       5.575   1.451  19.597  0.00  0.00    +0.127 C 
BRANCH  23  24
ATOM     24  CG  ASN A   5       5.932   0.776  18.292  0.00  0.00    +0.213 C 
ATOM     25  OD1 ASN A   5       6.573   1.324  17.397  0.00  0.00    -0.276 OA
ATOM     26  ND2 ASN A   5       5.532  -0.523  18.168  0.00  0.00    -0.329 N 
ATOM     27 HD21 ASN A   5       5.664  -0.943  17.258  0.00  0.00    +0.145 HD
ATOM     28 HD22 ASN A   5       4.789  -0.910  18.735  0.00  0.00    +0.145 HD
ENDBRANCH  23  24
ENDBRANCH  10  23
ENDBRANCH   7  10
ENDBRANCH   5   6
BRANCH   5  29
ATOM     29  CB  ASN A   4       6.206  -2.674  21.696  0.00  0.00    +0.127 C 
BRANCH  29  30
ATOM     30  CG  ASN A   4       5.828  -3.819  22.599  0.00  0.00    +0.213 C 
ATOM     31  ND2 ASN A   4       4.575  -3.760  23.132  0.00  0.00    -0.329 N 
ATOM     32 HD21 ASN A   4       4.020  -2.914  23.146  0.00  0.00    +0.145 HD
ATOM     33 HD22 ASN A   4       4.317  -4.493  23.781  0.00  0.00    +0.145 HD
ATOM     34  OD1 ASN A   4       6.573  -4.768  22.823  0.00  0.00    -0.276 OA
ENDBRANCH  29  30
ENDBRANCH   5  29
ENDBRANCH   3   5
BRANCH   1  35
ATOM     35  CA  GLN A   3       8.755  -2.046  25.706  0.00  0.00    +0.159 C 
BRANCH  35  37
ATOM     36  C   LEU A   2       7.258  -0.510  26.974  0.00  0.00    +0.234 C 
ATOM     37  N   GLN A   3       7.462  -1.408  25.956  0.00  0.00    -0.302 N 
ATOM     38  H   GLN A   3       6.717  -1.619  25.293  0.00  0.00    +0.150 HD
ATOM     39  O   LEU A   2       8.143  -0.225  27.785  0.00  0.00    -0.274 OA
BRANCH  36  40
ATOM     40  CA  LEU A   2       5.832   0.092  27.048  0.00  0.00    +0.159 C 
BRANCH  40  43
ATOM     41  C   LYS A   1       4.361  -1.842  26.537  0.00  0.00    +0.230 C 
ATOM     42  O   LYS A   1       4.353  -1.629  25.327  0.00  0.00    -0.274 OA
ATOM     43  N   LEU A   2       4.933  -0.990  27.456  0.00  0.00    -0.303 N 
ATOM     44  H   LEU A   2       5.066  -1.324  28.404  0.00  0.00    +0.149 HD
BRANCH  41  45
ATOM     45  CA  LYS A   1       3.773  -3.136  27.147  0.00  0.00    +0.138 C 
BRANCH  45  46
ATOM     46  N   LYS A   1       4.158  -4.285  26.311  0.00  0.00    -0.320 NA
ATOM     47  H1  LYS A   1       4.910  -3.996  25.682  0.00  0.00    +0.119 HD
ATOM     48  H2  LYS A   1       4.599  -4.982  26.920  0.00  0.00    +0.119 HD
ENDBRANCH  45  46
BRANCH  45  49
ATOM     49  CB  LYS A   1       4.314  -3.327  28.578  0.00  0.00    +0.028 C 
BRANCH  49  50
ATOM     50  CG  LYS A   1       4.798  -4.761  28.803  0.00  0.00    +0.007 C 
BRANCH  50  51
ATOM     51  CD  LYS A   1       3.858  -5.622  29.648  0.00  0.00    +0.051 C 
BRANCH  51  52
ATOM     52  CE  LYS A   1       3.866  -7.034  29.072  0.00  0.00    +0.127 C 
BRANCH  52  53
ATOM     53  NZ  LYS A   1       5.197  -7.393  28.551  0.00  0.00    +0.219 N 
ATOM     54  HZ1 LYS A   1       5.686  -6.589  28.142  0.00  0.00    +0.199 HD
ATOM     55  HZ2 LYS A   1       5.776  -7.691  29.365  0.00  0.00    +0.199 HD
ATOM     56  HZ3 LYS A   1       5.171  -8.159  27.871  0.00  0.00    +0.199 HD
ENDBRANCH  52  53
ENDBRANCH  51  52
ENDBRANCH  50  51
ENDBRANCH  49  50
ENDBRANCH  45  49
ENDBRANCH  41  45
ENDBRANCH  40  43
BRANCH  40  57
ATOM     57  CB  LEU A   2       5.773   1.257  28.043  0.00  0.00    +0.034 C 
BRANCH  57  58
ATOM     58  CG  LEU A   2       5.634   2.643  27.376  0.00  0.00    -0.015 C 
ATOM     59  CD2 LEU A   2       5.351   2.538  25.875  0.00  0.00    +0.007 C 
ATOM     60  CD1 LEU A   2       6.907   3.461  27.604  0.00  0.00    +0.007 C 
ENDBRANCH  57  58
ENDBRANCH  40  57
ENDBRANCH  36  40
ENDBRANCH  35  37
BRANCH  35  61
ATOM     61  CB  GLN A   3       8.889  -3.341  26.519  0.00  0.00    +0.041 C 
BRANCH  61  62
ATOM     62  CG  GLN A   3       7.550  -4.024  26.786  0.00  0.00    +0.098 C 
BRANCH  62  63
ATOM     63  CD  GLN A   3       7.594  -5.468  26.319  0.00  0.00    +0.211 C 
ATOM     64  NE2 GLN A   3       8.844  -5.939  26.050  0.00  0.00    -0.329 N 
ATOM     65 HE21 GLN A   3       8.979  -6.897  25.756  0.00  0.00    +0.145 HD
ATOM     66 HE22 GLN A   3       9.687  -5.407  26.259  0.00  0.00    +0.145 HD
ATOM     67  OE1 GLN A   3       6.590  -6.167  26.156  0.00  0.00    -0.276 OA
ENDBRANCH  62  63
ENDBRANCH  61  62
ENDBRANCH  35  61
ENDBRANCH   1  35
TORSDOF 29
ENDMDL
MODEL 3
REMARK VINA RESULT:      -5.6      2.027      6.801
REMARK  Name = KLQNNE-mmff94.pdb
REMARK  31 active torsions:
REMARK  status: ('A' for Active; 'I' for Inactive)
REMARK    1  A    between atoms: _1  and  _2
REMARK    2  A    between atoms: _2  and  _3
REMARK    3  A    between atoms: _2  and  _5
REMARK    4  A    between atoms: _5  and  _6
REMARK    5  A    between atoms: _6  and  _7
REMARK    6  A    between atoms: _7  and  _8
REMARK    7  A    between atoms: _8  and  _9
REMARK    8  A    between atoms: _23  and  _24
REMARK    9  A    between atoms: _24  and  _25
REMARK   10  A    between atoms: _24  and  _27
REMARK   11  A    between atoms: _27  and  _28
REMARK   12  A    between atoms: _28  and  _29
REMARK   13  A    between atoms: _28  and  _30
REMARK   14  A    between atoms: _42  and  _43
REMARK   15  A    between atoms: _43  and  _44
REMARK   16  A    between atoms: _43  and  _46
REMARK   17  A    between atoms: _46  and  _47
REMARK   18  A    between atoms: _47  and  _48
REMARK   19  A    between atoms: _59  and  _60
REMARK   20  A    between atoms: _60  and  _61
REMARK   21  A    between atoms: _60  and  _63
REMARK   22  A    between atoms: _63  and  _64
REMARK   23  A    between atoms: _73  and  _74
REMARK   24  A    between atoms: _74  and  _75
REMARK   25  A    between atoms: _74  and  _77
REMARK   26  A    between atoms: _77  and  _78
REMARK   27  A    between atoms: _87  and  _88
REMARK   28  A    between atoms: _88  and  _89
REMARK   29  A    between atoms: _88  and  _91
REMARK   30  A    between atoms: _91  and  _92
REMARK   31  A    between atoms: _92  and  _93
REMARK                            x       y       z     vdW  Elec       q    Type
REMARK                         _______ _______ _______ _____ _____    ______ ____
ROOT
ATOM      1  C   GLN A   3       7.757  -1.379  26.830  0.00  0.00    +0.234 C 
ATOM      2  O   GLN A   3       8.868  -0.854  26.887  0.00  0.00    -0.274 OA
ATOM      3  N   ASN A   4       7.565  -2.688  26.467  0.00  0.00    -0.302 N 
ATOM      4  H   ASN A   4       6.638  -3.101  26.442  0.00  0.00    +0.150 HD
ENDROOT
BRANCH   3   5
ATOM      5  CA  ASN A   4       8.685  -3.600  26.226  0.00  0.00    +0.168 C 
BRANCH   5   6
ATOM      6  C   ASN A   4       8.931  -3.594  24.712  0.00  0.00    +0.234 C 
ATOM      7  N   ASN A   5       7.803  -3.494  23.941  0.00  0.00    -0.302 N 
ATOM      8  H   ASN A   5       6.881  -3.394  24.362  0.00  0.00    +0.150 HD
ATOM      9  O   ASN A   4      10.066  -3.640  24.237  0.00  0.00    -0.274 OA
BRANCH   7  10
ATOM     10  CA  ASN A   5       7.833  -3.483  22.479  0.00  0.00    +0.168 C 
BRANCH  10  11
ATOM     11  C   ASN A   5       8.183  -2.043  22.063  0.00  0.00    +0.234 C 
ATOM     12  N   GLU A   6       7.155  -1.144  22.165  0.00  0.00    -0.304 N 
ATOM     13  H   GLU A   6       6.224  -1.433  22.450  0.00  0.00    +0.149 HD
ATOM     14  O   ASN A   5       9.324  -1.741  21.716  0.00  0.00    -0.274 OA
BRANCH  12  15
ATOM     15  CA  GLU A   6       7.286   0.268  21.797  0.00  0.00    +0.136 C 
BRANCH  15  16
ATOM     16  C   GLU A   6       6.752   1.070  22.981  0.00  0.00    +0.245 C 
ATOM     17  O   GLU A   6       7.177   0.944  24.131  0.00  0.00    -0.299 OA
ENDBRANCH  15  16
BRANCH  15  18
ATOM     18  CB  GLU A   6       6.498   0.586  20.529  0.00  0.00    +0.035 C 
BRANCH  18  19
ATOM     19  CG  GLU A   6       7.288   0.277  19.259  0.00  0.00    +0.054 C 
BRANCH  19  20
ATOM     20  CD  GLU A   6       6.425   0.151  18.002  0.00  0.00    +0.042 C 
ATOM     21  OE2 GLU A   6       6.204   1.249  17.423  0.00  0.00    -0.550 OA
ATOM     22  OE1 GLU A   6       6.040  -1.013  17.707  0.00  0.00    -0.550 OA
ENDBRANCH  19  20
ENDBRANCH  18  19
ENDBRANCH  15  18
ENDBRANCH  12  15
ENDBRANCH  10  11
BRANCH  10  23
ATOM     23  CB  ASN A   5       6.486  -3.865  21.868  0.00  0.00    +0.127 C 
BRANCH  23  24
ATOM     24  CG  ASN A   5       5.977  -5.207  22.340  0.00  0.00    +0.213 C 
ATOM     25  OD1 ASN A   5       5.671  -5.445  23.507  0.00  0.00    -0.276 OA
ATOM     26  ND2 ASN A   5       5.830  -6.159  21.373  0.00  0.00    -0.329 N 
ATOM     27 HD21 ASN A   5       5.601  -7.089  21.697  0.00  0.00    +0.145 HD
ATOM     28 HD22 ASN A   5       6.314  -6.101  20.487  0.00  0.00    +0.145 HD
ENDBRANCH  23  24
ENDBRANCH  10  23
ENDBRANCH   7  10
ENDBRANCH   5   6
BRANCH   5  29
ATOM     29  CB  ASN A   4       8.381  -5.030  26.666  0.00  0.00    +0.127 C 
BRANCH  29  30
ATOM     30  CG  ASN A   4       6.946  -5.179  27.100  0.00  0.00    +0.213 C 
ATOM     31  ND2 ASN A   4       6.161  -5.942  26.290  0.00  0.00    -0.329 N 
ATOM     32 HD21 ASN A   4       6.419  -6.188  25.343  0.00  0.00    +0.145 HD
ATOM     33 HD22 ASN A   4       5.181  -6.014  26.535  0.00  0.00    +0.145 HD
ATOM     34  OD1 ASN A   4       6.506  -4.681  28.132  0.00  0.00    -0.276 OA
ENDBRANCH  29  30
ENDBRANCH   5  29
ENDBRANCH   3   5
BRANCH   1  35
ATOM     35  CA  GLN A   3       6.478  -0.583  27.140  0.00  0.00    +0.159 C 
BRANCH  35  37
ATOM     36  C   LEU A   2       6.444   1.795  27.882  0.00  0.00    +0.234 C 
ATOM     37  N   GLN A   3       6.835   0.828  26.990  0.00  0.00    -0.302 N 
ATOM     38  H   GLN A   3       7.448   1.059  26.209  0.00  0.00    +0.150 HD
ATOM     39  O   LEU A   2       5.711   1.545  28.843  0.00  0.00    -0.274 OA
BRANCH  36  40
ATOM     40  CA  LEU A   2       6.961   3.224  27.577  0.00  0.00    +0.159 C 
BRANCH  40  43
ATOM     41  C   LYS A   1       8.118   4.205  25.611  0.00  0.00    +0.230 C 
ATOM     42  O   LYS A   1       8.509   5.195  26.225  0.00  0.00    -0.274 OA
ATOM     43  N   LEU A   2       7.256   3.273  26.142  0.00  0.00    -0.303 N 
ATOM     44  H   LEU A   2       7.132   2.395  25.649  0.00  0.00    +0.149 HD
BRANCH  41  45
ATOM     45  CA  LYS A   1       8.613   3.877  24.183  0.00  0.00    +0.138 C 
BRANCH  45  46
ATOM     46  N   LYS A   1       7.718   4.513  23.202  0.00  0.00    -0.320 NA
ATOM     47  H1  LYS A   1       8.288   4.952  22.475  0.00  0.00    +0.119 HD
ATOM     48  H2  LYS A   1       7.216   3.770  22.708  0.00  0.00    +0.119 HD
ENDBRANCH  45  46
BRANCH  45  49
ATOM     49  CB  LYS A   1      10.050   4.404  23.998  0.00  0.00    +0.028 C 
BRANCH  49  50
ATOM     50  CG  LYS A   1      10.974   3.315  23.449  0.00  0.00    +0.007 C 
BRANCH  50  51
ATOM     51  CD  LYS A   1      10.306   1.953  23.260  0.00  0.00    +0.051 C 
BRANCH  51  52
ATOM     52  CE  LYS A   1      10.878   0.997  24.301  0.00  0.00    +0.127 C 
BRANCH  52  53
ATOM     53  NZ  LYS A   1      10.153  -0.287  24.307  0.00  0.00    +0.219 N 
ATOM     54  HZ1 LYS A   1      10.377  -0.865  23.490  0.00  0.00    +0.199 HD
ATOM     55  HZ2 LYS A   1      10.489  -0.825  25.135  0.00  0.00    +0.199 HD
ATOM     56  HZ3 LYS A   1       9.137  -0.177  24.380  0.00  0.00    +0.199 HD
ENDBRANCH  52  53
ENDBRANCH  51  52
ENDBRANCH  50  51
ENDBRANCH  49  50
ENDBRANCH  45  49
ENDBRANCH  41  45
ENDBRANCH  40  43
BRANCH  40  57
ATOM     57  CB  LEU A   2       5.921   4.283  27.958  0.00  0.00    +0.034 C 
BRANCH  57  58
ATOM     58  CG  LEU A   2       4.741   4.386  26.968  0.00  0.00    -0.015 C 
ATOM     59  CD2 LEU A   2       4.650   5.768  26.316  0.00  0.00    +0.007 C 
ATOM     60  CD1 LEU A   2       3.428   4.068  27.686  0.00  0.00    +0.007 C 
ENDBRANCH  57  58
ENDBRANCH  40  57
ENDBRANCH  36  40
ENDBRANCH  35  37
BRANCH  35  61
ATOM     61  CB  GLN A   3       5.358  -0.968  26.162  0.00  0.00    +0.041 C 
BRANCH  61  62
ATOM     62  CG  GLN A   3       4.238  -1.772  26.818  0.00  0.00    +0.098 C 
BRANCH  62  63
ATOM     63  CD  GLN A   3       4.014  -3.071  26.064  0.00  0.00    +0.211 C 
ATOM     64  NE2 GLN A   3       4.332  -3.021  24.741  0.00  0.00    -0.329 N 
ATOM     65 HE21 GLN A   3       4.241  -3.843  24.160  0.00  0.00    +0.145 HD
ATOM     66 HE22 GLN A   3       4.796  -2.218  24.318  0.00  0.00    +0.145 HD
ATOM     67  OE1 GLN A   3       3.548  -4.091  26.580  0.00  0.00    -0.276 OA
ENDBRANCH  62  63
ENDBRANCH  61  62
ENDBRANCH  35  61
ENDBRANCH   1  35
TORSDOF 29
ENDMDL
MODEL 4
REMARK VINA RESULT:      -5.6      2.123      8.037
REMARK  Name = KLQNNE-mmff94.pdb
REMARK  31 active torsions:
REMARK  status: ('A' for Active; 'I' for Inactive)
REMARK    1  A    between atoms: _1  and  _2
REMARK    2  A    between atoms: _2  and  _3
REMARK    3  A    between atoms: _2  and  _5
REMARK    4  A    between atoms: _5  and  _6
REMARK    5  A    between atoms: _6  and  _7
REMARK    6  A    between atoms: _7  and  _8
REMARK    7  A    between atoms: _8  and  _9
REMARK    8  A    between atoms: _23  and  _24
REMARK    9  A    between atoms: _24  and  _25
REMARK   10  A    between atoms: _24  and  _27
REMARK   11  A    between atoms: _27  and  _28
REMARK   12  A    between atoms: _28  and  _29
REMARK   13  A    between atoms: _28  and  _30
REMARK   14  A    between atoms: _42  and  _43
REMARK   15  A    between atoms: _43  and  _44
REMARK   16  A    between atoms: _43  and  _46
REMARK   17  A    between atoms: _46  and  _47
REMARK   18  A    between atoms: _47  and  _48
REMARK   19  A    between atoms: _59  and  _60
REMARK   20  A    between atoms: _60  and  _61
REMARK   21  A    between atoms: _60  and  _63
REMARK   22  A    between atoms: _63  and  _64
REMARK   23  A    between atoms: _73  and  _74
REMARK   24  A    between atoms: _74  and  _75
REMARK   25  A    between atoms: _74  and  _77
REMARK   26  A    between atoms: _77  and  _78
REMARK   27  A    between atoms: _87  and  _88
REMARK   28  A    between atoms: _88  and  _89
REMARK   29  A    between atoms: _88  and  _91
REMARK   30  A    between atoms: _91  and  _92
REMARK   31  A    between atoms: _92  and  _93
REMARK                            x       y       z     vdW  Elec       q    Type
REMARK                         _______ _______ _______ _____ _____    ______ ____
ROOT
ATOM      1  C   GLN A   3       8.350  -1.020  26.055  0.00  0.00    +0.234 C 
ATOM      2  O   GLN A   3       8.941  -0.870  27.123  0.00  0.00    -0.274 OA
ATOM      3  N   ASN A   4       8.813  -0.520  24.865  0.00  0.00    -0.302 N 
ATOM      4  H   ASN A   4       8.313  -0.670  23.996  0.00  0.00    +0.150 HD
ENDROOT
BRANCH   3   5
ATOM      5  CA  ASN A   4      10.116   0.139  24.755  0.00  0.00    +0.168 C 
BRANCH   5   6
ATOM      6  C   ASN A   4       9.838   1.570  24.278  0.00  0.00    +0.234 C 
ATOM      7  N   ASN A   5       8.655   2.108  24.711  0.00  0.00    -0.302 N 
ATOM      8  H   ASN A   5       8.036   1.592  25.335  0.00  0.00    +0.150 HD
ATOM      9  O   ASN A   4      10.645   2.193  23.586  0.00  0.00    -0.274 OA
BRANCH   7  10
ATOM     10  CA  ASN A   5       8.211   3.455  24.354  0.00  0.00    +0.168 C 
BRANCH  10  11
ATOM     11  C   ASN A   5       7.423   3.987  25.564  0.00  0.00    +0.234 C 
ATOM     12  N   GLU A   6       7.160   3.060  26.538  0.00  0.00    -0.304 N 
ATOM     13  H   GLU A   6       7.429   2.087  26.430  0.00  0.00    +0.149 HD
ATOM     14  O   ASN A   5       7.110   5.174  25.647  0.00  0.00    -0.274 OA
BRANCH  12  15
ATOM     15  CA  GLU A   6       6.405   3.369  27.755  0.00  0.00    +0.136 C 
BRANCH  15  16
ATOM     16  C   GLU A   6       7.011   2.513  28.863  0.00  0.00    +0.245 C 
ATOM     17  O   GLU A   6       7.609   2.984  29.833  0.00  0.00    -0.299 OA
ENDBRANCH  15  16
BRANCH  15  18
ATOM     18  CB  GLU A   6       4.921   3.058  27.581  0.00  0.00    +0.035 C 
BRANCH  18  19
ATOM     19  CG  GLU A   6       4.557   1.660  28.072  0.00  0.00    +0.054 C 
BRANCH  19  20
ATOM     20  CD  GLU A   6       4.348   0.639  26.951  0.00  0.00    +0.042 C 
ATOM     21  OE2 GLU A   6       3.951  -0.488  27.355  0.00  0.00    -0.550 OA
ATOM     22  OE1 GLU A   6       4.603   1.038  25.782  0.00  0.00    -0.550 OA
ENDBRANCH  19  20
ENDBRANCH  18  19
ENDBRANCH  15  18
ENDBRANCH  12  15
ENDBRANCH  10  11
BRANCH  10  23
ATOM     23  CB  ASN A   5       7.301   3.459  23.127  0.00  0.00    +0.127 C 
BRANCH  23  24
ATOM     24  CG  ASN A   5       6.394   2.252  23.054  0.00  0.00    +0.213 C 
ATOM     25  OD1 ASN A   5       6.801   1.107  22.869  0.00  0.00    -0.276 OA
ATOM     26  ND2 ASN A   5       5.066   2.497  23.252  0.00  0.00    -0.329 N 
ATOM     27 HD21 ASN A   5       4.443   1.717  23.091  0.00  0.00    +0.145 HD
ATOM     28 HD22 ASN A   5       4.668   3.419  23.131  0.00  0.00    +0.145 HD
ENDBRANCH  23  24
ENDBRANCH  10  23
ENDBRANCH   7  10
ENDBRANCH   5   6
BRANCH   5  29
ATOM     29  CB  ASN A   4      11.034  -0.543  23.742  0.00  0.00    +0.127 C 
BRANCH  29  30
ATOM     30  CG  ASN A   4      10.293  -1.584  22.943  0.00  0.00    +0.213 C 
ATOM     31  ND2 ASN A   4      10.061  -1.270  21.638  0.00  0.00    -0.329 N 
ATOM     32 HD21 ASN A   4      10.137  -0.329  21.274  0.00  0.00    +0.145 HD
ATOM     33 HD22 ASN A   4       9.521  -1.934  21.096  0.00  0.00    +0.145 HD
ATOM     34  OD1 ASN A   4       9.947  -2.664  23.412  0.00  0.00    -0.276 OA
ENDBRANCH  29  30
ENDBRANCH   5  29
ENDBRANCH   3   5
BRANCH   1  35
ATOM     35  CA  GLN A   3       7.008  -1.769  25.982  0.00  0.00    +0.159 C 
BRANCH  35  37
ATOM     36  C   LEU A   2       5.645  -2.370  23.984  0.00  0.00    +0.234 C 
ATOM     37  N   GLN A   3       6.865  -2.203  24.592  0.00  0.00    -0.302 N 
ATOM     38  H   GLN A   3       7.728  -2.324  24.064  0.00  0.00    +0.150 HD
ATOM     39  O   LEU A   2       4.582  -2.220  24.593  0.00  0.00    -0.274 OA
BRANCH  36  40
ATOM     40  CA  LEU A   2       5.701  -2.790  22.494  0.00  0.00    +0.159 C 
BRANCH  40  43
ATOM     41  C   LYS A   1       6.103  -1.477  20.425  0.00  0.00    +0.230 C 
ATOM     42  O   LYS A   1       5.558  -2.299  19.692  0.00  0.00    -0.274 OA
ATOM     43  N   LEU A   2       6.337  -1.690  21.765  0.00  0.00    -0.303 N 
ATOM     44  H   LEU A   2       6.614  -0.900  22.337  0.00  0.00    +0.149 HD
BRANCH  41  45
ATOM     45  CA  LYS A   1       6.528  -0.079  19.917  0.00  0.00    +0.138 C 
BRANCH  45  46
ATOM     46  N   LYS A   1       7.994   0.036  19.984  0.00  0.00    -0.320 NA
ATOM     47  H1  LYS A   1       8.267   0.188  20.958  0.00  0.00    +0.119 HD
ATOM     48  H2  LYS A   1       8.391  -0.880  19.756  0.00  0.00    +0.119 HD
ENDBRANCH  45  46
BRANCH  45  49
ATOM     49  CB  LYS A   1       6.055   0.109  18.462  0.00  0.00    +0.028 C 
BRANCH  49  50
ATOM     50  CG  LYS A   1       5.149   1.335  18.326  0.00  0.00    +0.007 C 
BRANCH  50  51
ATOM     51  CD  LYS A   1       4.739   1.970  19.656  0.00  0.00    +0.051 C 
BRANCH  51  52
ATOM     52  CE  LYS A   1       3.233   2.203  19.622  0.00  0.00    +0.127 C 
BRANCH  52  53
ATOM     53  NZ  LYS A   1       2.870   3.229  18.629  0.00  0.00    +0.219 N 
ATOM     54  HZ1 LYS A   1       3.671   3.518  18.056  0.00  0.00    +0.199 HD
ATOM     55  HZ2 LYS A   1       2.193   2.791  17.967  0.00  0.00    +0.199 HD
ATOM     56  HZ3 LYS A   1       2.431   4.056  19.044  0.00  0.00    +0.199 HD
ENDBRANCH  52  53
ENDBRANCH  51  52
ENDBRANCH  50  51
ENDBRANCH  49  50
ENDBRANCH  45  49
ENDBRANCH  41  45
ENDBRANCH  40  43
BRANCH  40  57
ATOM     57  CB  LEU A   2       6.487  -4.093  22.313  0.00  0.00    +0.034 C 
BRANCH  57  58
ATOM     58  CG  LEU A   2       5.621  -5.288  21.859  0.00  0.00    -0.015 C 
ATOM     59  CD2 LEU A   2       5.188  -6.170  23.032  0.00  0.00    +0.007 C 
ATOM     60  CD1 LEU A   2       6.389  -6.130  20.837  0.00  0.00    +0.007 C 
ENDBRANCH  57  58
ENDBRANCH  40  57
ENDBRANCH  36  40
ENDBRANCH  35  37
BRANCH  35  61
ATOM     61  CB  GLN A   3       7.016  -2.976  26.931  0.00  0.00    +0.041 C 
BRANCH  61  62
ATOM     62  CG  GLN A   3       7.640  -4.224  26.310  0.00  0.00    +0.098 C 
BRANCH  62  63
ATOM     63  CD  GLN A   3       7.065  -5.473  26.953  0.00  0.00    +0.211 C 
ATOM     64  NE2 GLN A   3       6.065  -6.068  26.245  0.00  0.00    -0.329 N 
ATOM     65 HE21 GLN A   3       5.636  -6.919  26.580  0.00  0.00    +0.145 HD
ATOM     66 HE22 GLN A   3       5.806  -5.770  25.306  0.00  0.00    +0.145 HD
ATOM     67  OE1 GLN A   3       7.435  -5.913  28.046  0.00  0.00    -0.276 OA
ENDBRANCH  62  63
ENDBRANCH  61  62
ENDBRANCH  35  61
ENDBRANCH   1  35
TORSDOF 29
ENDMDL
MODEL 5
REMARK VINA RESULT:      -5.5      2.104      7.744
REMARK  Name = KLQNNE-mmff94.pdb
REMARK  31 active torsions:
REMARK  status: ('A' for Active; 'I' for Inactive)
REMARK    1  A    between atoms: _1  and  _2
REMARK    2  A    between atoms: _2  and  _3
REMARK    3  A    between atoms: _2  and  _5
REMARK    4  A    between atoms: _5  and  _6
REMARK    5  A    between atoms: _6  and  _7
REMARK    6  A    between atoms: _7  and  _8
REMARK    7  A    between atoms: _8  and  _9
REMARK    8  A    between atoms: _23  and  _24
REMARK    9  A    between atoms: _24  and  _25
REMARK   10  A    between atoms: _24  and  _27
REMARK   11  A    between atoms: _27  and  _28
REMARK   12  A    between atoms: _28  and  _29
REMARK   13  A    between atoms: _28  and  _30
REMARK   14  A    between atoms: _42  and  _43
REMARK   15  A    between atoms: _43  and  _44
REMARK   16  A    between atoms: _43  and  _46
REMARK   17  A    between atoms: _46  and  _47
REMARK   18  A    between atoms: _47  and  _48
REMARK   19  A    between atoms: _59  and  _60
REMARK   20  A    between atoms: _60  and  _61
REMARK   21  A    between atoms: _60  and  _63
REMARK   22  A    between atoms: _63  and  _64
REMARK   23  A    between atoms: _73  and  _74
REMARK   24  A    between atoms: _74  and  _75
REMARK   25  A    between atoms: _74  and  _77
REMARK   26  A    between atoms: _77  and  _78
REMARK   27  A    between atoms: _87  and  _88
REMARK   28  A    between atoms: _88  and  _89
REMARK   29  A    between atoms: _88  and  _91
REMARK   30  A    between atoms: _91  and  _92
REMARK   31  A    between atoms: _92  and  _93
REMARK                            x       y       z     vdW  Elec       q    Type
REMARK                         _______ _______ _______ _____ _____    ______ ____
ROOT
ATOM      1  C   GLN A   3       5.986  -3.924  22.834  0.00  0.00    +0.234 C 
ATOM      2  O   GLN A   3       5.325  -4.081  21.809  0.00  0.00    -0.274 OA
ATOM      3  N   ASN A   4       5.576  -4.368  24.065  0.00  0.00    -0.302 N 
ATOM      4  H   ASN A   4       6.148  -4.238  24.893  0.00  0.00    +0.150 HD
ENDROOT
BRANCH   3   5
ATOM      5  CA  ASN A   4       4.362  -5.169  24.238  0.00  0.00    +0.168 C 
BRANCH   5   6
ATOM      6  C   ASN A   4       3.808  -4.821  25.625  0.00  0.00    +0.234 C 
ATOM      7  N   ASN A   5       4.754  -4.627  26.597  0.00  0.00    -0.302 N 
ATOM      8  H   ASN A   5       5.749  -4.678  26.385  0.00  0.00    +0.150 HD
ATOM      9  O   ASN A   4       2.601  -4.693  25.830  0.00  0.00    -0.274 OA
BRANCH   7  10
ATOM     10  CA  ASN A   5       4.421  -4.299  27.983  0.00  0.00    +0.168 C 
BRANCH  10  11
ATOM     11  C   ASN A   5       4.373  -2.763  28.065  0.00  0.00    +0.234 C 
ATOM     12  N   GLU A   6       5.008  -2.108  27.044  0.00  0.00    -0.304 N 
ATOM     13  H   GLU A   6       5.510  -2.613  26.321  0.00  0.00    +0.149 HD
ATOM     14  O   ASN A   5       3.759  -2.194  28.967  0.00  0.00    -0.274 OA
BRANCH  12  15
ATOM     15  CA  GLU A   6       5.089  -0.647  26.958  0.00  0.00    +0.136 C 
BRANCH  15  16
ATOM     16  C   GLU A   6       5.251  -0.315  25.477  0.00  0.00    +0.245 C 
ATOM     17  O   GLU A   6       5.097   0.818  25.017  0.00  0.00    -0.299 OA
ENDBRANCH  15  16
BRANCH  15  18
ATOM     18  CB  GLU A   6       6.267  -0.108  27.766  0.00  0.00    +0.035 C 
BRANCH  18  19
ATOM     19  CG  GLU A   6       5.962   1.240  28.413  0.00  0.00    +0.054 C 
BRANCH  19  20
ATOM     20  CD  GLU A   6       6.968   2.340  28.068  0.00  0.00    +0.042 C 
ATOM     21  OE2 GLU A   6       7.396   2.972  29.072  0.00  0.00    -0.550 OA
ATOM     22  OE1 GLU A   6       7.235   2.485  26.844  0.00  0.00    -0.550 OA
ENDBRANCH  19  20
ENDBRANCH  18  19
ENDBRANCH  15  18
ENDBRANCH  12  15
ENDBRANCH  10  11
BRANCH  10  23
ATOM     23  CB  ASN A   5       5.465  -4.819  28.969  0.00  0.00    +0.127 C 
BRANCH  23  24
ATOM     24  CG  ASN A   5       5.904  -6.236  28.680  0.00  0.00    +0.213 C 
ATOM     25  OD1 ASN A   5       7.071  -6.555  28.461  0.00  0.00    -0.276 OA
ATOM     26  ND2 ASN A   5       4.919  -7.180  28.716  0.00  0.00    -0.329 N 
ATOM     27 HD21 ASN A   5       5.182  -8.107  28.411  0.00  0.00    +0.145 HD
ATOM     28 HD22 ASN A   5       3.942  -6.937  28.616  0.00  0.00    +0.145 HD
ENDBRANCH  23  24
ENDBRANCH  10  23
ENDBRANCH   7  10
ENDBRANCH   5   6
BRANCH   5  29
ATOM     29  CB  ASN A   4       4.638  -6.670  24.185  0.00  0.00    +0.127 C 
BRANCH  29  30
ATOM     30  CG  ASN A   4       3.360  -7.460  24.071  0.00  0.00    +0.213 C 
ATOM     31  ND2 ASN A   4       2.552  -7.123  23.027  0.00  0.00    -0.329 N 
ATOM     32 HD21 ASN A   4       2.646  -6.259  22.510  0.00  0.00    +0.145 HD
ATOM     33 HD22 ASN A   4       1.664  -7.607  22.960  0.00  0.00    +0.145 HD
ATOM     34  OD1 ASN A   4       3.068  -8.372  24.837  0.00  0.00    -0.276 OA
ENDBRANCH  29  30
ENDBRANCH   5  29
ENDBRANCH   3   5
BRANCH   1  35
ATOM     35  CA  GLN A   3       7.333  -3.181  22.812  0.00  0.00    +0.159 C 
BRANCH  35  37
ATOM     36  C   LEU A   2       8.077  -1.167  21.549  0.00  0.00    +0.234 C 
ATOM     37  N   GLN A   3       7.081  -1.913  22.127  0.00  0.00    -0.302 N 
ATOM     38  H   GLN A   3       6.106  -1.627  22.045  0.00  0.00    +0.150 HD
ATOM     39  O   LEU A   2       9.266  -1.491  21.621  0.00  0.00    -0.274 OA
BRANCH  36  40
ATOM     40  CA  LEU A   2       7.606   0.123  20.829  0.00  0.00    +0.159 C 
BRANCH  40  43
ATOM     41  C   LYS A   1       7.893   2.311  21.968  0.00  0.00    +0.230 C 
ATOM     42  O   LYS A   1       6.694   2.575  21.954  0.00  0.00    -0.274 OA
ATOM     43  N   LEU A   2       8.439   1.219  21.331  0.00  0.00    -0.303 N 
ATOM     44  H   LEU A   2       9.398   0.965  21.545  0.00  0.00    +0.149 HD
BRANCH  41  45
ATOM     45  CA  LYS A   1       8.912   3.160  22.764  0.00  0.00    +0.138 C 
BRANCH  45  46
ATOM     46  N   LYS A   1       8.475   3.253  24.166  0.00  0.00    -0.320 NA
ATOM     47  H1  LYS A   1       8.156   4.207  24.348  0.00  0.00    +0.119 HD
ATOM     48  H2  LYS A   1       7.629   2.685  24.269  0.00  0.00    +0.119 HD
ENDBRANCH  45  46
BRANCH  45  49
ATOM     49  CB  LYS A   1      10.304   2.500  22.693  0.00  0.00    +0.028 C 
BRANCH  49  50
ATOM     50  CG  LYS A   1      10.731   1.956  24.058  0.00  0.00    +0.007 C 
BRANCH  50  51
ATOM     51  CD  LYS A   1      10.760   0.430  24.149  0.00  0.00    +0.051 C 
BRANCH  51  52
ATOM     52  CE  LYS A   1       9.838   0.008  25.288  0.00  0.00    +0.127 C 
BRANCH  52  53
ATOM     53  NZ  LYS A   1       8.437   0.369  25.006  0.00  0.00    +0.219 N 
ATOM     54  HZ1 LYS A   1       7.941  -0.364  24.488  0.00  0.00    +0.199 HD
ATOM     55  HZ2 LYS A   1       7.948   0.446  25.925  0.00  0.00    +0.199 HD
ATOM     56  HZ3 LYS A   1       8.341   1.261  24.511  0.00  0.00    +0.199 HD
ENDBRANCH  52  53
ENDBRANCH  51  52
ENDBRANCH  50  51
ENDBRANCH  49  50
ENDBRANCH  45  49
ENDBRANCH  41  45
ENDBRANCH  40  43
BRANCH  40  57
ATOM     57  CB  LEU A   2       7.735  -0.012  19.308  0.00  0.00    +0.034 C 
BRANCH  57  58
ATOM     58  CG  LEU A   2       6.382  -0.110  18.572  0.00  0.00    -0.015 C 
ATOM     59  CD2 LEU A   2       5.481   1.094  18.853  0.00  0.00    +0.007 C 
ATOM     60  CD1 LEU A   2       5.661  -1.398  18.974  0.00  0.00    +0.007 C 
ENDBRANCH  57  58
ENDBRANCH  40  57
ENDBRANCH  36  40
ENDBRANCH  35  37
BRANCH  35  61
ATOM     61  CB  GLN A   3       7.832  -2.936  24.244  0.00  0.00    +0.041 C 
BRANCH  61  62
ATOM     62  CG  GLN A   3       9.166  -3.616  24.539  0.00  0.00    +0.098 C 
BRANCH  62  63
ATOM     63  CD  GLN A   3       8.939  -4.903  25.312  0.00  0.00    +0.211 C 
ATOM     64  NE2 GLN A   3      10.073  -5.602  25.596  0.00  0.00    -0.329 N 
ATOM     65 HE21 GLN A   3      10.028  -6.460  26.129  0.00  0.00    +0.145 HD
ATOM     66 HE22 GLN A   3      11.005  -5.233  25.412  0.00  0.00    +0.145 HD
ATOM     67  OE1 GLN A   3       7.824  -5.320  25.637  0.00  0.00    -0.276 OA
ENDBRANCH  62  63
ENDBRANCH  61  62
ENDBRANCH  35  61
ENDBRANCH   1  35
TORSDOF 29
ENDMDL
MODEL 6
REMARK VINA RESULT:      -5.4      2.361      6.756
REMARK  Name = KLQNNE-mmff94.pdb
REMARK  31 active torsions:
REMARK  status: ('A' for Active; 'I' for Inactive)
REMARK    1  A    between atoms: _1  and  _2
REMARK    2  A    between atoms: _2  and  _3
REMARK    3  A    between atoms: _2  and  _5
REMARK    4  A    between atoms: _5  and  _6
REMARK    5  A    between atoms: _6  and  _7
REMARK    6  A    between atoms: _7  and  _8
REMARK    7  A    between atoms: _8  and  _9
REMARK    8  A    between atoms: _23  and  _24
REMARK    9  A    between atoms: _24  and  _25
REMARK   10  A    between atoms: _24  and  _27
REMARK   11  A    between atoms: _27  and  _28
REMARK   12  A    between atoms: _28  and  _29
REMARK   13  A    between atoms: _28  and  _30
REMARK   14  A    between atoms: _42  and  _43
REMARK   15  A    between atoms: _43  and  _44
REMARK   16  A    between atoms: _43  and  _46
REMARK   17  A    between atoms: _46  and  _47
REMARK   18  A    between atoms: _47  and  _48
REMARK   19  A    between atoms: _59  and  _60
REMARK   20  A    between atoms: _60  and  _61
REMARK   21  A    between atoms: _60  and  _63
REMARK   22  A    between atoms: _63  and  _64
REMARK   23  A    between atoms: _73  and  _74
REMARK   24  A    between atoms: _74  and  _75
REMARK   25  A    between atoms: _74  and  _77
REMARK   26  A    between atoms: _77  and  _78
REMARK   27  A    between atoms: _87  and  _88
REMARK   28  A    between atoms: _88  and  _89
REMARK   29  A    between atoms: _88  and  _91
REMARK   30  A    between atoms: _91  and  _92
REMARK   31  A    between atoms: _92  and  _93
REMARK                            x       y       z     vdW  Elec       q    Type
REMARK                         _______ _______ _______ _____ _____    ______ ____
ROOT
ATOM      1  C   GLN A   3       8.730  -1.733  24.724  0.00  0.00    +0.234 C 
ATOM      2  O   GLN A   3       9.667  -2.238  24.107  0.00  0.00    -0.274 OA
ATOM      3  N   ASN A   4       7.495  -2.320  24.826  0.00  0.00    -0.302 N 
ATOM      4  H   ASN A   4       6.744  -1.888  25.353  0.00  0.00    +0.150 HD
ENDROOT
BRANCH   3   5
ATOM      5  CA  ASN A   4       7.227  -3.659  24.298  0.00  0.00    +0.168 C 
BRANCH   5   6
ATOM      6  C   ASN A   4       5.790  -3.633  23.760  0.00  0.00    +0.234 C 
ATOM      7  N   ASN A   5       4.885  -4.361  24.485  0.00  0.00    -0.302 N 
ATOM      8  H   ASN A   5       5.158  -4.848  25.337  0.00  0.00    +0.150 HD
ATOM      9  O   ASN A   4       5.480  -2.971  22.769  0.00  0.00    -0.274 OA
BRANCH   7  10
ATOM     10  CA  ASN A   5       3.471  -4.466  24.124  0.00  0.00    +0.168 C 
BRANCH  10  11
ATOM     11  C   ASN A   5       2.700  -4.664  25.441  0.00  0.00    +0.234 C 
ATOM     12  N   GLU A   6       3.484  -4.818  26.553  0.00  0.00    -0.304 N 
ATOM     13  H   GLU A   6       4.496  -4.847  26.489  0.00  0.00    +0.149 HD
ATOM     14  O   ASN A   5       1.470  -4.631  25.469  0.00  0.00    -0.274 OA
BRANCH  12  15
ATOM     15  CA  GLU A   6       2.936  -5.039  27.894  0.00  0.00    +0.136 C 
BRANCH  15  16
ATOM     16  C   GLU A   6       3.130  -3.730  28.656  0.00  0.00    +0.245 C 
ATOM     17  O   GLU A   6       4.204  -3.125  28.699  0.00  0.00    -0.299 OA
ENDBRANCH  15  16
BRANCH  15  18
ATOM     18  CB  GLU A   6       3.649  -6.188  28.603  0.00  0.00    +0.035 C 
BRANCH  18  19
ATOM     19  CG  GLU A   6       4.907  -6.637  27.864  0.00  0.00    +0.054 C 
BRANCH  19  20
ATOM     20  CD  GLU A   6       6.197  -6.469  28.669  0.00  0.00    +0.042 C 
ATOM     21  OE2 GLU A   6       6.635  -5.286  28.690  0.00  0.00    -0.550 OA
ATOM     22  OE1 GLU A   6       6.664  -7.515  29.197  0.00  0.00    -0.550 OA
ENDBRANCH  19  20
ENDBRANCH  18  19
ENDBRANCH  15  18
ENDBRANCH  12  15
ENDBRANCH  10  11
BRANCH  10  23
ATOM     23  CB  ASN A   5       3.194  -5.652  23.201  0.00  0.00    +0.127 C 
BRANCH  23  24
ATOM     24  CG  ASN A   5       3.503  -6.986  23.839  0.00  0.00    +0.213 C 
ATOM     25  OD1 ASN A   5       4.553  -7.230  24.431  0.00  0.00    -0.276 OA
ATOM     26  ND2 ASN A   5       2.514  -7.924  23.760  0.00  0.00    -0.329 N 
ATOM     27 HD21 ASN A   5       2.756  -8.851  24.081  0.00  0.00    +0.145 HD
ATOM     28 HD22 ASN A   5       1.777  -7.867  23.069  0.00  0.00    +0.145 HD
ENDBRANCH  23  24
ENDBRANCH  10  23
ENDBRANCH   7  10
ENDBRANCH   5   6
BRANCH   5  29
ATOM     29  CB  ASN A   4       7.326  -4.742  25.371  0.00  0.00    +0.127 C 
BRANCH  29  30
ATOM     30  CG  ASN A   4       8.753  -5.174  25.586  0.00  0.00    +0.213 C 
ATOM     31  ND2 ASN A   4       9.248  -4.967  26.838  0.00  0.00    -0.329 N 
ATOM     32 HD21 ASN A   4       8.810  -4.350  27.511  0.00  0.00    +0.145 HD
ATOM     33 HD22 ASN A   4      10.220  -5.203  26.992  0.00  0.00    +0.145 HD
ATOM     34  OD1 ASN A   4       9.428  -5.709  24.713  0.00  0.00    -0.276 OA
ENDBRANCH  29  30
ENDBRANCH   5  29
ENDBRANCH   3   5
BRANCH   1  35
ATOM     35  CA  GLN A   3       8.873  -0.366  25.416  0.00  0.00    +0.159 C 
BRANCH  35  37
ATOM     36  C   LEU A   2       9.746   1.375  23.861  0.00  0.00    +0.234 C 
ATOM     37  N   GLN A   3       8.703   0.637  24.364  0.00  0.00    -0.302 N 
ATOM     38  H   GLN A   3       7.767   0.727  23.970  0.00  0.00    +0.150 HD
ATOM     39  O   LEU A   2      10.892   1.281  24.309  0.00  0.00    -0.274 OA
BRANCH  36  40
ATOM     40  CA  LEU A   2       9.374   2.353  22.718  0.00  0.00    +0.159 C 
BRANCH  40  43
ATOM     41  C   LYS A   1       8.984   0.332  21.329  0.00  0.00    +0.230 C 
ATOM     42  O   LYS A   1      10.098  -0.140  21.547  0.00  0.00    -0.274 OA
ATOM     43  N   LEU A   2       8.597   1.588  21.740  0.00  0.00    -0.303 N 
ATOM     44  H   LEU A   2       7.614   1.829  21.690  0.00  0.00    +0.149 HD
BRANCH  41  45
ATOM     45  CA  LYS A   1       7.875  -0.476  20.615  0.00  0.00    +0.138 C 
BRANCH  45  46
ATOM     46  N   LYS A   1       6.636  -0.401  21.405  0.00  0.00    -0.320 NA
ATOM     47  H1  LYS A   1       6.824  -0.758  22.344  0.00  0.00    +0.119 HD
ATOM     48  H2  LYS A   1       6.418   0.588  21.554  0.00  0.00    +0.119 HD
ENDBRANCH  45  46
BRANCH  45  49
ATOM     49  CB  LYS A   1       7.634   0.108  19.208  0.00  0.00    +0.028 C 
BRANCH  49  50
ATOM     50  CG  LYS A   1       6.176  -0.064  18.778  0.00  0.00    +0.007 C 
BRANCH  50  51
ATOM     51  CD  LYS A   1       5.522   1.207  18.235  0.00  0.00    +0.051 C 
BRANCH  51  52
ATOM     52  CE  LYS A   1       4.470   1.663  19.240  0.00  0.00    +0.127 C 
BRANCH  52  53
ATOM     53  NZ  LYS A   1       5.093   2.186  20.469  0.00  0.00    +0.219 N 
ATOM     54  HZ1 LYS A   1       5.736   2.963  20.280  0.00  0.00    +0.199 HD
ATOM     55  HZ2 LYS A   1       4.329   2.587  21.055  0.00  0.00    +0.199 HD
ATOM     56  HZ3 LYS A   1       5.578   1.467  21.015  0.00  0.00    +0.199 HD
ENDBRANCH  52  53
ENDBRANCH  51  52
ENDBRANCH  50  51
ENDBRANCH  49  50
ENDBRANCH  45  49
ENDBRANCH  41  45
ENDBRANCH  40  43
BRANCH  40  57
ATOM     57  CB  LEU A   2       8.567   3.544  23.248  0.00  0.00    +0.034 C 
BRANCH  57  58
ATOM     58  CG  LEU A   2       9.223   4.259  24.449  0.00  0.00    -0.015 C 
ATOM     59  CD2 LEU A   2       8.192   4.715  25.485  0.00  0.00    +0.007 C 
ATOM     60  CD1 LEU A   2      10.031   5.463  23.962  0.00  0.00    +0.007 C 
ENDBRANCH  57  58
ENDBRANCH  40  57
ENDBRANCH  36  40
ENDBRANCH  35  37
BRANCH  35  61
ATOM     61  CB  GLN A   3       7.800  -0.201  26.502  0.00  0.00    +0.041 C 
BRANCH  61  62
ATOM     62  CG  GLN A   3       6.957   1.060  26.327  0.00  0.00    +0.098 C 
BRANCH  62  63
ATOM     63  CD  GLN A   3       6.871   1.820  27.639  0.00  0.00    +0.211 C 
ATOM     64  NE2 GLN A   3       7.479   1.205  28.691  0.00  0.00    -0.329 N 
ATOM     65 HE21 GLN A   3       7.497   1.645  29.602  0.00  0.00    +0.145 HD
ATOM     66 HE22 GLN A   3       8.048   0.367  28.583  0.00  0.00    +0.145 HD
ATOM     67  OE1 GLN A   3       6.274   2.892  27.772  0.00  0.00    -0.276 OA
ENDBRANCH  62  63
ENDBRANCH  61  62
ENDBRANCH  35  61
ENDBRANCH   1  35
TORSDOF 29
ENDMDL
MODEL 7
REMARK VINA RESULT:      -5.4      2.161      5.717
REMARK  Name = KLQNNE-mmff94.pdb
REMARK  31 active torsions:
REMARK  status: ('A' for Active; 'I' for Inactive)
REMARK    1  A    between atoms: _1  and  _2
REMARK    2  A    between atoms: _2  and  _3
REMARK    3  A    between atoms: _2  and  _5
REMARK    4  A    between atoms: _5  and  _6
REMARK    5  A    between atoms: _6  and  _7
REMARK    6  A    between atoms: _7  and  _8
REMARK    7  A    between atoms: _8  and  _9
REMARK    8  A    between atoms: _23  and  _24
REMARK    9  A    between atoms: _24  and  _25
REMARK   10  A    between atoms: _24  and  _27
REMARK   11  A    between atoms: _27  and  _28
REMARK   12  A    between atoms: _28  and  _29
REMARK   13  A    between atoms: _28  and  _30
REMARK   14  A    between atoms: _42  and  _43
REMARK   15  A    between atoms: _43  and  _44
REMARK   16  A    between atoms: _43  and  _46
REMARK   17  A    between atoms: _46  and  _47
REMARK   18  A    between atoms: _47  and  _48
REMARK   19  A    between atoms: _59  and  _60
REMARK   20  A    between atoms: _60  and  _61
REMARK   21  A    between atoms: _60  and  _63
REMARK   22  A    between atoms: _63  and  _64
REMARK   23  A    between atoms: _73  and  _74
REMARK   24  A    between atoms: _74  and  _75
REMARK   25  A    between atoms: _74  and  _77
REMARK   26  A    between atoms: _77  and  _78
REMARK   27  A    between atoms: _87  and  _88
REMARK   28  A    between atoms: _88  and  _89
REMARK   29  A    between atoms: _88  and  _91
REMARK   30  A    between atoms: _91  and  _92
REMARK   31  A    between atoms: _92  and  _93
REMARK                            x       y       z     vdW  Elec       q    Type
REMARK                         _______ _______ _______ _____ _____    ______ ____
ROOT
ATOM      1  C   GLN A   3       7.668   1.680  21.230  0.00  0.00    +0.234 C 
ATOM      2  O   GLN A   3       8.890   1.540  21.204  0.00  0.00    -0.274 OA
ATOM      3  N   ASN A   4       7.049   2.758  21.808  0.00  0.00    -0.302 N 
ATOM      4  H   ASN A   4       6.039   2.856  21.803  0.00  0.00    +0.150 HD
ENDROOT
BRANCH   3   5
ATOM      5  CA  ASN A   4       7.804   3.892  22.344  0.00  0.00    +0.168 C 
BRANCH   5   6
ATOM      6  C   ASN A   4       8.262   3.483  23.750  0.00  0.00    +0.234 C 
ATOM      7  N   ASN A   5       8.338   2.132  23.965  0.00  0.00    -0.302 N 
ATOM      8  H   ASN A   5       8.137   1.465  23.222  0.00  0.00    +0.150 HD
ATOM      9  O   ASN A   4       8.570   4.316  24.602  0.00  0.00    -0.274 OA
BRANCH   7  10
ATOM     10  CA  ASN A   5       8.744   1.548  25.244  0.00  0.00    +0.168 C 
BRANCH  10  11
ATOM     11  C   ASN A   5       9.757   0.439  24.911  0.00  0.00    +0.234 C 
ATOM     12  N   GLU A   6       9.222  -0.682  24.334  0.00  0.00    -0.304 N 
ATOM     13  H   GLU A   6       8.222  -0.777  24.188  0.00  0.00    +0.149 HD
ATOM     14  O   ASN A   5      10.961   0.595  25.115  0.00  0.00    -0.274 OA
BRANCH  12  15
ATOM     15  CA  GLU A   6      10.021  -1.852  23.965  0.00  0.00    +0.136 C 
BRANCH  15  16
ATOM     16  C   GLU A   6      10.389  -1.672  22.495  0.00  0.00    +0.245 C 
ATOM     17  O   GLU A   6       9.561  -1.696  21.581  0.00  0.00    -0.299 OA
ENDBRANCH  15  16
BRANCH  15  18
ATOM     18  CB  GLU A   6       9.239  -3.147  24.172  0.00  0.00    +0.035 C 
BRANCH  18  19
ATOM     19  CG  GLU A   6       8.734  -3.299  25.605  0.00  0.00    +0.054 C 
BRANCH  19  20
ATOM     20  CD  GLU A   6       8.952  -4.692  26.199  0.00  0.00    +0.042 C 
ATOM     21  OE2 GLU A   6       8.210  -4.947  27.187  0.00  0.00    -0.550 OA
ATOM     22  OE1 GLU A   6       9.837  -5.400  25.646  0.00  0.00    -0.550 OA
ENDBRANCH  19  20
ENDBRANCH  18  19
ENDBRANCH  15  18
ENDBRANCH  12  15
ENDBRANCH  10  11
BRANCH  10  23
ATOM     23  CB  ASN A   5       7.567   0.938  26.002  0.00  0.00    +0.127 C 
BRANCH  23  24
ATOM     24  CG  ASN A   5       6.234   1.188  25.335  0.00  0.00    +0.213 C 
ATOM     25  OD1 ASN A   5       5.930   0.734  24.234  0.00  0.00    -0.276 OA
ATOM     26  ND2 ASN A   5       5.342   1.931  26.053  0.00  0.00    -0.329 N 
ATOM     27 HD21 ASN A   5       4.497   2.199  25.569  0.00  0.00    +0.145 HD
ATOM     28 HD22 ASN A   5       5.636   2.537  26.808  0.00  0.00    +0.145 HD
ENDBRANCH  23  24
ENDBRANCH  10  23
ENDBRANCH   7  10
ENDBRANCH   5   6
BRANCH   5  29
ATOM     29  CB  ASN A   4       6.958   5.159  22.456  0.00  0.00    +0.127 C 
BRANCH  29  30
ATOM     30  CG  ASN A   4       5.667   4.895  23.186  0.00  0.00    +0.213 C 
ATOM     31  ND2 ASN A   4       5.503   5.572  24.357  0.00  0.00    -0.329 N 
ATOM     32 HD21 ASN A   4       6.266   6.020  24.848  0.00  0.00    +0.145 HD
ATOM     33 HD22 ASN A   4       4.665   5.372  24.889  0.00  0.00    +0.145 HD
ATOM     34  OD1 ASN A   4       4.795   4.150  22.751  0.00  0.00    -0.276 OA
ENDBRANCH  29  30
ENDBRANCH   5  29
ENDBRANCH   3   5
BRANCH   1  35
ATOM     35  CA  GLN A   3       6.729   0.620  20.629  0.00  0.00    +0.159 C 
BRANCH  35  37
ATOM     36  C   LEU A   2       6.202  -1.719  21.307  0.00  0.00    +0.234 C 
ATOM     37  N   GLN A   3       6.663  -0.463  21.611  0.00  0.00    -0.302 N 
ATOM     38  H   GLN A   3       7.035  -0.257  22.538  0.00  0.00    +0.150 HD
ATOM     39  O   LEU A   2       5.755  -2.002  20.192  0.00  0.00    -0.274 OA
BRANCH  36  40
ATOM     40  CA  LEU A   2       6.253  -2.742  22.470  0.00  0.00    +0.159 C 
BRANCH  40  43
ATOM     41  C   LYS A   1       5.212  -2.890  24.719  0.00  0.00    +0.230 C 
ATOM     42  O   LYS A   1       5.398  -4.100  24.822  0.00  0.00    -0.274 OA
ATOM     43  N   LEU A   2       5.467  -2.177  23.569  0.00  0.00    -0.303 N 
ATOM     44  H   LEU A   2       5.469  -1.164  23.621  0.00  0.00    +0.149 HD
BRANCH  41  45
ATOM     45  CA  LYS A   1       4.722  -2.031  25.908  0.00  0.00    +0.138 C 
BRANCH  45  46
ATOM     46  N   LYS A   1       3.266  -2.190  26.055  0.00  0.00    -0.320 NA
ATOM     47  H1  LYS A   1       2.844  -1.266  26.165  0.00  0.00    +0.119 HD
ATOM     48  H2  LYS A   1       2.896  -2.526  25.160  0.00  0.00    +0.119 HD
ENDBRANCH  45  46
BRANCH  45  49
ATOM     49  CB  LYS A   1       5.430  -2.483  27.201  0.00  0.00    +0.028 C 
BRANCH  49  50
ATOM     50  CG  LYS A   1       4.480  -3.266  28.110  0.00  0.00    +0.007 C 
BRANCH  50  51
ATOM     51  CD  LYS A   1       5.044  -4.590  28.625  0.00  0.00    +0.051 C 
BRANCH  51  52
ATOM     52  CE  LYS A   1       4.554  -5.702  27.703  0.00  0.00    +0.127 C 
BRANCH  52  53
ATOM     53  NZ  LYS A   1       5.675  -6.350  27.000  0.00  0.00    +0.219 N 
ATOM     54  HZ1 LYS A   1       5.857  -5.928  26.083  0.00  0.00    +0.199 HD
ATOM     55  HZ2 LYS A   1       6.535  -6.176  27.567  0.00  0.00    +0.199 HD
ATOM     56  HZ3 LYS A   1       5.555  -7.362  26.894  0.00  0.00    +0.199 HD
ENDBRANCH  52  53
ENDBRANCH  51  52
ENDBRANCH  50  51
ENDBRANCH  49  50
ENDBRANCH  45  49
ENDBRANCH  41  45
ENDBRANCH  40  43
BRANCH  40  57
ATOM     57  CB  LEU A   2       5.691  -4.101  22.038  0.00  0.00    +0.034 C 
BRANCH  57  58
ATOM     58  CG  LEU A   2       6.759  -5.077  21.499  0.00  0.00    -0.015 C 
ATOM     59  CD2 LEU A   2       6.178  -6.075  20.495  0.00  0.00    +0.007 C 
ATOM     60  CD1 LEU A   2       7.410  -5.833  22.659  0.00  0.00    +0.007 C 
ENDBRANCH  57  58
ENDBRANCH  40  57
ENDBRANCH  36  40
ENDBRANCH  35  37
BRANCH  35  61
ATOM     61  CB  GLN A   3       5.336   1.217  20.384  0.00  0.00    +0.041 C 
BRANCH  61  62
ATOM     62  CG  GLN A   3       5.075   1.549  18.916  0.00  0.00    +0.098 C 
BRANCH  62  63
ATOM     63  CD  GLN A   3       5.978   0.719  18.022  0.00  0.00    +0.211 C 
ATOM     64  NE2 GLN A   3       5.537  -0.548  17.790  0.00  0.00    -0.329 N 
ATOM     65 HE21 GLN A   3       6.058  -1.170  17.186  0.00  0.00    +0.145 HD
ATOM     66 HE22 GLN A   3       4.620  -0.874  18.091  0.00  0.00    +0.145 HD
ATOM     67  OE1 GLN A   3       7.048   1.128  17.560  0.00  0.00    -0.276 OA
ENDBRANCH  62  63
ENDBRANCH  61  62
ENDBRANCH  35  61
ENDBRANCH   1  35
TORSDOF 29
ENDMDL
MODEL 8
REMARK VINA RESULT:      -5.4      2.258      7.450
REMARK  Name = KLQNNE-mmff94.pdb
REMARK  31 active torsions:
REMARK  status: ('A' for Active; 'I' for Inactive)
REMARK    1  A    between atoms: _1  and  _2
REMARK    2  A    between atoms: _2  and  _3
REMARK    3  A    between atoms: _2  and  _5
REMARK    4  A    between atoms: _5  and  _6
REMARK    5  A    between atoms: _6  and  _7
REMARK    6  A    between atoms: _7  and  _8
REMARK    7  A    between atoms: _8  and  _9
REMARK    8  A    between atoms: _23  and  _24
REMARK    9  A    between atoms: _24  and  _25
REMARK   10  A    between atoms: _24  and  _27
REMARK   11  A    between atoms: _27  and  _28
REMARK   12  A    between atoms: _28  and  _29
REMARK   13  A    between atoms: _28  and  _30
REMARK   14  A    between atoms: _42  and  _43
REMARK   15  A    between atoms: _43  and  _44
REMARK   16  A    between atoms: _43  and  _46
REMARK   17  A    between atoms: _46  and  _47
REMARK   18  A    between atoms: _47  and  _48
REMARK   19  A    between atoms: _59  and  _60
REMARK   20  A    between atoms: _60  and  _61
REMARK   21  A    between atoms: _60  and  _63
REMARK   22  A    between atoms: _63  and  _64
REMARK   23  A    between atoms: _73  and  _74
REMARK   24  A    between atoms: _74  and  _75
REMARK   25  A    between atoms: _74  and  _77
REMARK   26  A    between atoms: _77  and  _78
REMARK   27  A    between atoms: _87  and  _88
REMARK   28  A    between atoms: _88  and  _89
REMARK   29  A    between atoms: _88  and  _91
REMARK   30  A    between atoms: _91  and  _92
REMARK   31  A    between atoms: _92  and  _93
REMARK                            x       y       z     vdW  Elec       q    Type
REMARK                         _______ _______ _______ _____ _____    ______ ____
ROOT
ATOM      1  C   GLN A   3       7.621  -1.107  21.378  0.00  0.00    +0.234 C 
ATOM      2  O   GLN A   3       8.719  -0.835  20.892  0.00  0.00    -0.274 OA
ATOM      3  N   ASN A   4       6.589  -0.208  21.446  0.00  0.00    -0.302 N 
ATOM      4  H   ASN A   4       5.688  -0.463  21.839  0.00  0.00    +0.150 HD
ENDROOT
BRANCH   3   5
ATOM      5  CA  ASN A   4       6.676   1.123  20.840  0.00  0.00    +0.168 C 
BRANCH   5   6
ATOM      6  C   ASN A   4       6.508   2.131  21.984  0.00  0.00    +0.234 C 
ATOM      7  N   ASN A   5       6.498   3.447  21.602  0.00  0.00    -0.302 N 
ATOM      8  H   ASN A   5       6.562   3.713  20.621  0.00  0.00    +0.150 HD
ATOM      9  O   ASN A   4       6.359   1.771  23.152  0.00  0.00    -0.274 OA
BRANCH   7  10
ATOM     10  CA  ASN A   5       6.360   4.553  22.549  0.00  0.00    +0.168 C 
BRANCH  10  11
ATOM     11  C   ASN A   5       7.515   4.410  23.554  0.00  0.00    +0.234 C 
ATOM     12  N   GLU A   6       8.740   4.155  22.998  0.00  0.00    -0.304 N 
ATOM     13  H   GLU A   6       8.851   4.023  21.997  0.00  0.00    +0.149 HD
ATOM     14  O   ASN A   5       7.332   4.569  24.761  0.00  0.00    -0.274 OA
BRANCH  12  15
ATOM     15  CA  GLU A   6       9.957   3.967  23.791  0.00  0.00    +0.136 C 
BRANCH  15  16
ATOM     16  C   GLU A   6      10.696   5.302  23.764  0.00  0.00    +0.245 C 
ATOM     17  O   GLU A   6      11.910   5.401  23.568  0.00  0.00    -0.299 OA
ENDBRANCH  15  16
BRANCH  15  18
ATOM     18  CB  GLU A   6      10.829   2.854  23.215  0.00  0.00    +0.035 C 
BRANCH  18  19
ATOM     19  CG  GLU A   6      10.046   1.566  22.974  0.00  0.00    +0.054 C 
BRANCH  19  20
ATOM     20  CD  GLU A   6      10.514   0.382  23.823  0.00  0.00    +0.042 C 
ATOM     21  OE2 GLU A   6      10.845   0.696  24.998  0.00  0.00    -0.550 OA
ATOM     22  OE1 GLU A   6      10.520  -0.743  23.252  0.00  0.00    -0.550 OA
ENDBRANCH  19  20
ENDBRANCH  18  19
ENDBRANCH  15  18
ENDBRANCH  12  15
ENDBRANCH  10  11
BRANCH  10  23
ATOM     23  CB  ASN A   5       5.033   4.506  23.305  0.00  0.00    +0.127 C 
BRANCH  23  24
ATOM     24  CG  ASN A   5       3.835   4.360  22.395  0.00  0.00    +0.213 C 
ATOM     25  OD1 ASN A   5       3.163   3.333  22.316  0.00  0.00    -0.276 OA
ATOM     26  ND2 ASN A   5       3.498   5.469  21.675  0.00  0.00    -0.329 N 
ATOM     27 HD21 ASN A   5       2.773   5.345  20.982  0.00  0.00    +0.145 HD
ATOM     28 HD22 ASN A   5       4.159   6.215  21.501  0.00  0.00    +0.145 HD
ENDBRANCH  23  24
ENDBRANCH  10  23
ENDBRANCH   7  10
ENDBRANCH   5   6
BRANCH   5  29
ATOM     29  CB  ASN A   4       5.577   1.369  19.808  0.00  0.00    +0.127 C 
BRANCH  29  30
ATOM     30  CG  ASN A   4       5.982   0.871  18.445  0.00  0.00    +0.213 C 
ATOM     31  ND2 ASN A   4       5.718   1.714  17.408  0.00  0.00    -0.329 N 
ATOM     32 HD21 ASN A   4       5.079   2.496  17.479  0.00  0.00    +0.145 HD
ATOM     33 HD22 ASN A   4       5.936   1.379  16.477  0.00  0.00    +0.145 HD
ATOM     34  OD1 ASN A   4       6.545  -0.204  18.267  0.00  0.00    -0.276 OA
ENDBRANCH  29  30
ENDBRANCH   5  29
ENDBRANCH   3   5
BRANCH   1  35
ATOM     35  CA  GLN A   3       7.334  -2.494  21.979  0.00  0.00    +0.159 C 
BRANCH  35  37
ATOM     36  C   LEU A   2       8.308  -3.262  24.139  0.00  0.00    +0.234 C 
ATOM     37  N   GLN A   3       7.562  -2.364  23.418  0.00  0.00    -0.302 N 
ATOM     38  H   GLN A   3       7.183  -1.529  23.863  0.00  0.00    +0.150 HD
ATOM     39  O   LEU A   2       8.789  -4.277  23.627  0.00  0.00    -0.274 OA
BRANCH  36  40
ATOM     40  CA  LEU A   2       8.474  -2.928  25.643  0.00  0.00    +0.159 C 
BRANCH  40  43
ATOM     41  C   LYS A   1       8.053  -0.715  26.688  0.00  0.00    +0.230 C 
ATOM     42  O   LYS A   1       9.062  -0.755  27.388  0.00  0.00    -0.274 OA
ATOM     43  N   LEU A   2       7.618  -1.772  25.919  0.00  0.00    -0.303 N 
ATOM     44  H   LEU A   2       6.894  -1.600  25.231  0.00  0.00    +0.149 HD
BRANCH  41  45
ATOM     45  CA  LYS A   1       7.195   0.565  26.556  0.00  0.00    +0.138 C 
BRANCH  45  46
ATOM     46  N   LYS A   1       7.951   1.580  25.803  0.00  0.00    -0.320 NA
ATOM     47  H1  LYS A   1       8.800   1.148  25.434  0.00  0.00    +0.119 HD
ATOM     48  H2  LYS A   1       7.409   1.816  24.967  0.00  0.00    +0.119 HD
ENDBRANCH  45  46
BRANCH  45  49
ATOM     49  CB  LYS A   1       5.883   0.236  25.817  0.00  0.00    +0.028 C 
BRANCH  49  50
ATOM     50  CG  LYS A   1       4.675   0.848  26.530  0.00  0.00    +0.007 C 
BRANCH  50  51
ATOM     51  CD  LYS A   1       4.513   2.354  26.320  0.00  0.00    +0.051 C 
BRANCH  51  52
ATOM     52  CE  LYS A   1       3.054   2.713  26.585  0.00  0.00    +0.127 C 
BRANCH  52  53
ATOM     53  NZ  LYS A   1       2.321   2.939  25.326  0.00  0.00    +0.219 N 
ATOM     54  HZ1 LYS A   1       2.163   2.069  24.805  0.00  0.00    +0.199 HD
ATOM     55  HZ2 LYS A   1       1.373   3.292  25.582  0.00  0.00    +0.199 HD
ATOM     56  HZ3 LYS A   1       2.770   3.627  24.715  0.00  0.00    +0.199 HD
ENDBRANCH  52  53
ENDBRANCH  51  52
ENDBRANCH  50  51
ENDBRANCH  49  50
ENDBRANCH  45  49
ENDBRANCH  41  45
ENDBRANCH  40  43
BRANCH  40  57
ATOM     57  CB  LEU A   2       8.084  -4.121  26.523  0.00  0.00    +0.034 C 
BRANCH  57  58
ATOM     58  CG  LEU A   2       6.571  -4.425  26.529  0.00  0.00    -0.015 C 
ATOM     59  CD2 LEU A   2       6.014  -4.568  27.948  0.00  0.00    +0.007 C 
ATOM     60  CD1 LEU A   2       6.291  -5.703  25.735  0.00  0.00    +0.007 C 
ENDBRANCH  57  58
ENDBRANCH  40  57
ENDBRANCH  36  40
ENDBRANCH  35  37
BRANCH  35  61
ATOM     61  CB  GLN A   3       5.883  -2.910  21.693  0.00  0.00    +0.041 C 
BRANCH  61  62
ATOM     62  CG  GLN A   3       5.505  -4.245  22.331  0.00  0.00    +0.098 C 
BRANCH  62  63
ATOM     63  CD  GLN A   3       5.945  -5.394  21.441  0.00  0.00    +0.211 C 
ATOM     64  NE2 GLN A   3       6.308  -6.523  22.111  0.00  0.00    -0.329 N 
ATOM     65 HE21 GLN A   3       6.593  -7.351  21.605  0.00  0.00    +0.145 HD
ATOM     66 HE22 GLN A   3       6.181  -6.629  23.116  0.00  0.00    +0.145 HD
ATOM     67  OE1 GLN A   3       6.009  -5.323  20.211  0.00  0.00    -0.276 OA
ENDBRANCH  62  63
ENDBRANCH  61  62
ENDBRANCH  35  61
ENDBRANCH   1  35
TORSDOF 29
ENDMDL
MODEL 9
REMARK VINA RESULT:      -5.4      2.040      5.229
REMARK  Name = KLQNNE-mmff94.pdb
REMARK  31 active torsions:
REMARK  status: ('A' for Active; 'I' for Inactive)
REMARK    1  A    between atoms: _1  and  _2
REMARK    2  A    between atoms: _2  and  _3
REMARK    3  A    between atoms: _2  and  _5
REMARK    4  A    between atoms: _5  and  _6
REMARK    5  A    between atoms: _6  and  _7
REMARK    6  A    between atoms: _7  and  _8
REMARK    7  A    between atoms: _8  and  _9
REMARK    8  A    between atoms: _23  and  _24
REMARK    9  A    between atoms: _24  and  _25
REMARK   10  A    between atoms: _24  and  _27
REMARK   11  A    between atoms: _27  and  _28
REMARK   12  A    between atoms: _28  and  _29
REMARK   13  A    between atoms: _28  and  _30
REMARK   14  A    between atoms: _42  and  _43
REMARK   15  A    between atoms: _43  and  _44
REMARK   16  A    between atoms: _43  and  _46
REMARK   17  A    between atoms: _46  and  _47
REMARK   18  A    between atoms: _47  and  _48
REMARK   19  A    between atoms: _59  and  _60
REMARK   20  A    between atoms: _60  and  _61
REMARK   21  A    between atoms: _60  and  _63
REMARK   22  A    between atoms: _63  and  _64
REMARK   23  A    between atoms: _73  and  _74
REMARK   24  A    between atoms: _74  and  _75
REMARK   25  A    between atoms: _74  and  _77
REMARK   26  A    between atoms: _77  and  _78
REMARK   27  A    between atoms: _87  and  _88
REMARK   28  A    between atoms: _88  and  _89
REMARK   29  A    between atoms: _88  and  _91
REMARK   30  A    between atoms: _91  and  _92
REMARK   31  A    between atoms: _92  and  _93
REMARK                            x       y       z     vdW  Elec       q    Type
REMARK                         _______ _______ _______ _____ _____    ______ ____
ROOT
ATOM      1  C   GLN A   3       7.435   0.530  21.207  0.00  0.00    +0.234 C 
ATOM      2  O   GLN A   3       8.620   0.795  21.008  0.00  0.00    -0.274 OA
ATOM      3  N   ASN A   4       6.559   1.408  21.792  0.00  0.00    -0.302 N 
ATOM      4  H   ASN A   4       5.583   1.170  21.931  0.00  0.00    +0.150 HD
ENDROOT
BRANCH   3   5
ATOM      5  CA  ASN A   4       6.942   2.782  22.123  0.00  0.00    +0.168 C 
BRANCH   5   6
ATOM      6  C   ASN A   4       7.845   2.694  23.359  0.00  0.00    +0.234 C 
ATOM      7  N   ASN A   5       7.647   1.591  24.147  0.00  0.00    -0.302 N 
ATOM      8  H   ASN A   5       6.969   0.874  23.892  0.00  0.00    +0.150 HD
ATOM      9  O   ASN A   4       8.707   3.541  23.596  0.00  0.00    -0.274 OA
BRANCH   7  10
ATOM     10  CA  ASN A   5       8.404   1.337  25.372  0.00  0.00    +0.168 C 
BRANCH  10  11
ATOM     11  C   ASN A   5       9.491   0.311  25.005  0.00  0.00    +0.234 C 
ATOM     12  N   GLU A   6       9.022  -0.897  24.562  0.00  0.00    -0.304 N 
ATOM     13  H   GLU A   6       8.028  -1.101  24.530  0.00  0.00    +0.149 HD
ATOM     14  O   ASN A   5      10.685   0.600  25.068  0.00  0.00    -0.274 OA
BRANCH  12  15
ATOM     15  CA  GLU A   6       9.901  -2.007  24.185  0.00  0.00    +0.136 C 
BRANCH  15  16
ATOM     16  C   GLU A   6      10.397  -1.700  22.775  0.00  0.00    +0.245 C 
ATOM     17  O   GLU A   6       9.809  -2.065  21.755  0.00  0.00    -0.299 OA
ENDBRANCH  15  16
BRANCH  15  18
ATOM     18  CB  GLU A   6       9.156  -3.340  24.218  0.00  0.00    +0.035 C 
BRANCH  18  19
ATOM     19  CG  GLU A   6       8.860  -3.807  25.641  0.00  0.00    +0.054 C 
BRANCH  19  20
ATOM     20  CD  GLU A   6       8.025  -5.087  25.717  0.00  0.00    +0.042 C 
ATOM     21  OE2 GLU A   6       7.454  -5.388  24.634  0.00  0.00    -0.550 OA
ATOM     22  OE1 GLU A   6       8.003  -5.670  26.835  0.00  0.00    -0.550 OA
ENDBRANCH  19  20
ENDBRANCH  18  19
ENDBRANCH  15  18
ENDBRANCH  12  15
ENDBRANCH  10  11
BRANCH  10  23
ATOM     23  CB  ASN A   5       7.530   0.761  26.485  0.00  0.00    +0.127 C 
BRANCH  23  24
ATOM     24  CG  ASN A   5       6.832   1.822  27.303  0.00  0.00    +0.213 C 
ATOM     25  OD1 ASN A   5       7.168   2.131  28.444  0.00  0.00    -0.276 OA
ATOM     26  ND2 ASN A   5       5.806   2.471  26.679  0.00  0.00    -0.329 N 
ATOM     27 HD21 ASN A   5       5.262   3.099  27.256  0.00  0.00    +0.145 HD
ATOM     28 HD22 ASN A   5       5.331   2.076  25.878  0.00  0.00    +0.145 HD
ENDBRANCH  23  24
ENDBRANCH  10  23
ENDBRANCH   7  10
ENDBRANCH   5   6
BRANCH   5  29
ATOM     29  CB  ASN A   4       5.739   3.661  22.460  0.00  0.00    +0.127 C 
BRANCH  29  30
ATOM     30  CG  ASN A   4       4.566   2.834  22.919  0.00  0.00    +0.213 C 
ATOM     31  ND2 ASN A   4       3.478   2.849  22.099  0.00  0.00    -0.329 N 
ATOM     32 HD21 ASN A   4       3.342   3.541  21.374  0.00  0.00    +0.145 HD
ATOM     33 HD22 ASN A   4       2.660   2.340  22.413  0.00  0.00    +0.145 HD
ATOM     34  OD1 ASN A   4       4.585   2.159  23.943  0.00  0.00    -0.276 OA
ENDBRANCH  29  30
ENDBRANCH   5  29
ENDBRANCH   3   5
BRANCH   1  35
ATOM     35  CA  GLN A   3       6.848  -0.842  20.834  0.00  0.00    +0.159 C 
BRANCH  35  37
ATOM     36  C   LEU A   2       5.963  -2.569  22.397  0.00  0.00    +0.234 C 
ATOM     37  N   GLN A   3       6.046  -1.263  21.983  0.00  0.00    -0.302 N 
ATOM     38  H   GLN A   3       5.586  -0.521  22.510  0.00  0.00    +0.150 HD
ATOM     39  O   LEU A   2       6.517  -3.487  21.787  0.00  0.00    -0.274 OA
BRANCH  36  40
ATOM     40  CA  LEU A   2       5.100  -2.808  23.662  0.00  0.00    +0.159 C 
BRANCH  40  43
ATOM     41  C   LYS A   1       3.781  -4.885  23.997  0.00  0.00    +0.230 C 
ATOM     42  O   LYS A   1       2.736  -4.286  24.243  0.00  0.00    -0.274 OA
ATOM     43  N   LEU A   2       4.997  -4.259  23.839  0.00  0.00    -0.303 N 
ATOM     44  H   LEU A   2       5.767  -4.794  23.453  0.00  0.00    +0.149 HD
BRANCH  41  45
ATOM     45  CA  LYS A   1       3.818  -6.416  23.778  0.00  0.00    +0.138 C 
BRANCH  45  46
ATOM     46  N   LYS A   1       5.144  -6.801  23.268  0.00  0.00    -0.320 NA
ATOM     47  H1  LYS A   1       5.663  -7.261  24.019  0.00  0.00    +0.119 HD
ATOM     48  H2  LYS A   1       5.009  -7.540  22.572  0.00  0.00    +0.119 HD
ENDBRANCH  45  46
BRANCH  45  49
ATOM     49  CB  LYS A   1       3.542  -7.136  25.113  0.00  0.00    +0.028 C 
BRANCH  49  50
ATOM     50  CG  LYS A   1       4.685  -6.922  26.107  0.00  0.00    +0.007 C 
BRANCH  50  51
ATOM     51  CD  LYS A   1       4.251  -6.355  27.459  0.00  0.00    +0.051 C 
BRANCH  51  52
ATOM     52  CE  LYS A   1       5.125  -6.987  28.538  0.00  0.00    +0.127 C 
BRANCH  52  53
ATOM     53  NZ  LYS A   1       6.001  -5.987  29.173  0.00  0.00    +0.219 N 
ATOM     54  HZ1 LYS A   1       6.427  -6.334  30.039  0.00  0.00    +0.199 HD
ATOM     55  HZ2 LYS A   1       6.794  -5.813  28.518  0.00  0.00    +0.199 HD
ATOM     56  HZ3 LYS A   1       5.530  -5.096  29.357  0.00  0.00    +0.199 HD
ENDBRANCH  52  53
ENDBRANCH  51  52
ENDBRANCH  50  51
ENDBRANCH  49  50
ENDBRANCH  45  49
ENDBRANCH  41  45
ENDBRANCH  40  43
BRANCH  40  57
ATOM     57  CB  LEU A   2       5.729  -2.150  24.896  0.00  0.00    +0.034 C 
BRANCH  57  58
ATOM     58  CG  LEU A   2       4.864  -2.256  26.170  0.00  0.00    -0.015 C 
ATOM     59  CD2 LEU A   2       4.283  -0.903  26.589  0.00  0.00    +0.007 C 
ATOM     60  CD1 LEU A   2       5.693  -2.838  27.317  0.00  0.00    +0.007 C 
ENDBRANCH  57  58
ENDBRANCH  40  57
ENDBRANCH  36  40
ENDBRANCH  35  37
BRANCH  35  61
ATOM     61  CB  GLN A   3       5.977  -0.727  19.575  0.00  0.00    +0.041 C 
BRANCH  61  62
ATOM     62  CG  GLN A   3       6.716  -0.117  18.387  0.00  0.00    +0.098 C 
BRANCH  62  63
ATOM     63  CD  GLN A   3       5.980   1.112  17.884  0.00  0.00    +0.211 C 
ATOM     64  NE2 GLN A   3       4.888   1.460  18.621  0.00  0.00    -0.329 N 
ATOM     65 HE21 GLN A   3       4.346   2.278  18.380  0.00  0.00    +0.145 HD
ATOM     66 HE22 GLN A   3       4.655   1.007  19.504  0.00  0.00    +0.145 HD
ATOM     67  OE1 GLN A   3       6.304   1.740  16.873  0.00  0.00    -0.276 OA
ENDBRANCH  62  63
ENDBRANCH  61  62
ENDBRANCH  35  61
ENDBRANCH   1  35
TORSDOF 29
ENDMDL
MODEL 10
REMARK VINA RESULT:      -5.4      1.933      2.572
REMARK  Name = KLQNNE-mmff94.pdb
REMARK  31 active torsions:
REMARK  status: ('A' for Active; 'I' for Inactive)
REMARK    1  A    between atoms: _1  and  _2
REMARK    2  A    between atoms: _2  and  _3
REMARK    3  A    between atoms: _2  and  _5
REMARK    4  A    between atoms: _5  and  _6
REMARK    5  A    between atoms: _6  and  _7
REMARK    6  A    between atoms: _7  and  _8
REMARK    7  A    between atoms: _8  and  _9
REMARK    8  A    between atoms: _23  and  _24
REMARK    9  A    between atoms: _24  and  _25
REMARK   10  A    between atoms: _24  and  _27
REMARK   11  A    between atoms: _27  and  _28
REMARK   12  A    between atoms: _28  and  _29
REMARK   13  A    between atoms: _28  and  _30
REMARK   14  A    between atoms: _42  and  _43
REMARK   15  A    between atoms: _43  and  _44
REMARK   16  A    between atoms: _43  and  _46
REMARK   17  A    between atoms: _46  and  _47
REMARK   18  A    between atoms: _47  and  _48
REMARK   19  A    between atoms: _59  and  _60
REMARK   20  A    between atoms: _60  and  _61
REMARK   21  A    between atoms: _60  and  _63
REMARK   22  A    between atoms: _63  and  _64
REMARK   23  A    between atoms: _73  and  _74
REMARK   24  A    between atoms: _74  and  _75
REMARK   25  A    between atoms: _74  and  _77
REMARK   26  A    between atoms: _77  and  _78
REMARK   27  A    between atoms: _87  and  _88
REMARK   28  A    between atoms: _88  and  _89
REMARK   29  A    between atoms: _88  and  _91
REMARK   30  A    between atoms: _91  and  _92
REMARK   31  A    between atoms: _92  and  _93
REMARK                            x       y       z     vdW  Elec       q    Type
REMARK                         _______ _______ _______ _____ _____    ______ ____
ROOT
ATOM      1  C   GLN A   3       6.767   2.068  22.022  0.00  0.00    +0.234 C 
ATOM      2  O   GLN A   3       7.844   2.520  21.636  0.00  0.00    -0.274 OA
ATOM      3  N   ASN A   4       6.331   0.805  21.716  0.00  0.00    -0.302 N 
ATOM      4  H   ASN A   4       5.444   0.452  22.060  0.00  0.00    +0.150 HD
ENDROOT
BRANCH   3   5
ATOM      5  CA  ASN A   4       7.170  -0.153  20.993  0.00  0.00    +0.168 C 
BRANCH   5   6
ATOM      6  C   ASN A   4       8.415  -0.377  21.861  0.00  0.00    +0.234 C 
ATOM      7  N   ASN A   5       8.165  -0.808  23.137  0.00  0.00    -0.302 N 
ATOM      8  H   ASN A   5       7.216  -0.995  23.455  0.00  0.00    +0.150 HD
ATOM      9  O   ASN A   4       9.553  -0.213  21.419  0.00  0.00    -0.274 OA
BRANCH   7  10
ATOM     10  CA  ASN A   5       9.221  -1.067  24.115  0.00  0.00    +0.168 C 
BRANCH  10  11
ATOM     11  C   ASN A   5       8.721  -2.224  24.997  0.00  0.00    +0.234 C 
ATOM     12  N   GLU A   6       8.484  -3.398  24.334  0.00  0.00    -0.304 N 
ATOM     13  H   GLU A   6       8.588  -3.469  23.327  0.00  0.00    +0.149 HD
ATOM     14  O   ASN A   5       8.601  -2.089  26.215  0.00  0.00    -0.274 OA
BRANCH  12  15
ATOM     15  CA  GLU A   6       7.985  -4.606  24.997  0.00  0.00    +0.136 C 
BRANCH  15  16
ATOM     16  C   GLU A   6       9.201  -5.497  25.233  0.00  0.00    +0.245 C 
ATOM     17  O   GLU A   6      10.266  -5.083  25.695  0.00  0.00    -0.299 OA
ENDBRANCH  15  16
BRANCH  15  18
ATOM     18  CB  GLU A   6       6.947  -5.322  24.137  0.00  0.00    +0.035 C 
BRANCH  18  19
ATOM     19  CG  GLU A   6       7.281  -5.261  22.649  0.00  0.00    +0.054 C 
BRANCH  19  20
ATOM     20  CD  GLU A   6       6.337  -4.376  21.832  0.00  0.00    +0.042 C 
ATOM     21  OE2 GLU A   6       6.220  -3.204  22.283  0.00  0.00    -0.550 OA
ATOM     22  OE1 GLU A   6       5.794  -4.918  20.831  0.00  0.00    -0.550 OA
ENDBRANCH  19  20
ENDBRANCH  18  19
ENDBRANCH  15  18
ENDBRANCH  12  15
ENDBRANCH  10  11
BRANCH  10  23
ATOM     23  CB  ASN A   5       9.505   0.147  24.998  0.00  0.00    +0.127 C 
BRANCH  23  24
ATOM     24  CG  ASN A   5      10.608   1.029  24.461  0.00  0.00    +0.213 C 
ATOM     25  OD1 ASN A   5      11.802   0.835  24.683  0.00  0.00    -0.276 OA
ATOM     26  ND2 ASN A   5      10.207   2.058  23.659  0.00  0.00    -0.329 N 
ATOM     27 HD21 ASN A   5      10.925   2.717  23.391  0.00  0.00    +0.145 HD
ATOM     28 HD22 ASN A   5       9.260   2.412  23.676  0.00  0.00    +0.145 HD
ENDBRANCH  23  24
ENDBRANCH  10  23
ENDBRANCH   7  10
ENDBRANCH   5   6
BRANCH   5  29
ATOM     29  CB  ASN A   4       7.614   0.369  19.629  0.00  0.00    +0.127 C 
BRANCH  29  30
ATOM     30  CG  ASN A   4       6.553   0.145  18.583  0.00  0.00    +0.213 C 
ATOM     31  ND2 ASN A   4       5.729  -0.918  18.799  0.00  0.00    -0.329 N 
ATOM     32 HD21 ASN A   4       5.942  -1.659  19.454  0.00  0.00    +0.145 HD
ATOM     33 HD22 ASN A   4       5.040  -1.118  18.084  0.00  0.00    +0.145 HD
ATOM     34  OD1 ASN A   4       6.405   0.881  17.612  0.00  0.00    -0.276 OA
ENDBRANCH  29  30
ENDBRANCH   5  29
ENDBRANCH   3   5
BRANCH   1  35
ATOM     35  CA  GLN A   3       5.802   2.915  22.870  0.00  0.00    +0.159 C 
BRANCH  35  37
ATOM     36  C   LEU A   2       4.812   2.117  25.012  0.00  0.00    +0.234 C 
ATOM     37  N   GLN A   3       5.907   2.401  24.235  0.00  0.00    -0.302 N 
ATOM     38  H   GLN A   3       6.849   2.205  24.574  0.00  0.00    +0.150 HD
ATOM     39  O   LEU A   2       3.660   2.333  24.626  0.00  0.00    -0.274 OA
BRANCH  36  40
ATOM     40  CA  LEU A   2       5.128   1.537  26.414  0.00  0.00    +0.159 C 
BRANCH  40  43
ATOM     41  C   LYS A   1       4.922  -0.801  25.602  0.00  0.00    +0.230 C 
ATOM     42  O   LYS A   1       5.595  -0.602  24.593  0.00  0.00    -0.274 OA
ATOM     43  N   LEU A   2       4.533   0.199  26.465  0.00  0.00    -0.303 N 
ATOM     44  H   LEU A   2       4.147  -0.064  27.365  0.00  0.00    +0.149 HD
BRANCH  41  45
ATOM     45  CA  LYS A   1       4.494  -2.222  26.037  0.00  0.00    +0.138 C 
BRANCH  45  46
ATOM     46  N   LYS A   1       4.429  -3.093  24.853  0.00  0.00    -0.320 NA
ATOM     47  H1  LYS A   1       5.016  -2.692  24.118  0.00  0.00    +0.119 HD
ATOM     48  H2  LYS A   1       4.894  -3.975  25.087  0.00  0.00    +0.119 HD
ENDBRANCH  45  46
BRANCH  45  49
ATOM     49  CB  LYS A   1       5.515  -2.785  27.045  0.00  0.00    +0.028 C 
BRANCH  49  50
ATOM     50  CG  LYS A   1       4.902  -3.902  27.893  0.00  0.00    +0.007 C 
BRANCH  50  51
ATOM     51  CD  LYS A   1       5.868  -5.035  28.242  0.00  0.00    +0.051 C 
BRANCH  51  52
ATOM     52  CE  LYS A   1       5.458  -6.268  27.445  0.00  0.00    +0.127 C 
BRANCH  52  53
ATOM     53  NZ  LYS A   1       5.319  -7.448  28.316  0.00  0.00    +0.219 N 
ATOM     54  HZ1 LYS A   1       4.418  -7.468  28.807  0.00  0.00    +0.199 HD
ATOM     55  HZ2 LYS A   1       5.322  -8.289  27.698  0.00  0.00    +0.199 HD
ATOM     56  HZ3 LYS A   1       6.080  -7.541  28.995  0.00  0.00    +0.199 HD
ENDBRANCH  52  53
ENDBRANCH  51  52
ENDBRANCH  50  51
ENDBRANCH  49  50
ENDBRANCH  45  49
ENDBRANCH  41  45
ENDBRANCH  40  43
BRANCH  40  57
ATOM     57  CB  LEU A   2       6.640   1.473  26.660  0.00  0.00    +0.034 C 
BRANCH  57  58
ATOM     58  CG  LEU A   2       7.103   2.251  27.911  0.00  0.00    -0.015 C 
ATOM     59  CD2 LEU A   2       7.055   1.392  29.177  0.00  0.00    +0.007 C 
ATOM     60  CD1 LEU A   2       6.237   3.498  28.101  0.00  0.00    +0.007 C 
ENDBRANCH  57  58
ENDBRANCH  40  57
ENDBRANCH  36  40
ENDBRANCH  35  37
BRANCH  35  61
ATOM     61  CB  GLN A   3       6.201   4.397  22.814  0.00  0.00    +0.041 C 
BRANCH  61  62
ATOM     62  CG  GLN A   3       6.852   4.893  24.103  0.00  0.00    +0.098 C 
BRANCH  62  63
ATOM     63  CD  GLN A   3       8.345   5.083  23.898  0.00  0.00    +0.211 C 
ATOM     64  NE2 GLN A   3       8.695   5.537  22.662  0.00  0.00    -0.329 N 
ATOM     65 HE21 GLN A   3       9.663   5.718  22.438  0.00  0.00    +0.145 HD
ATOM     66 HE22 GLN A   3       8.007   5.840  21.975  0.00  0.00    +0.145 HD
ATOM     67  OE1 GLN A   3       9.193   4.819  24.755  0.00  0.00    -0.276 OA
ENDBRANCH  62  63
ENDBRANCH  61  62
ENDBRANCH  35  61
ENDBRANCH   1  35
TORSDOF 29
ENDMDL
MODEL 11
REMARK VINA RESULT:      -5.3      1.335      1.965
REMARK  Name = KLQNNE-mmff94.pdb
REMARK  31 active torsions:
REMARK  status: ('A' for Active; 'I' for Inactive)
REMARK    1  A    between atoms: _1  and  _2
REMARK    2  A    between atoms: _2  and  _3
REMARK    3  A    between atoms: _2  and  _5
REMARK    4  A    between atoms: _5  and  _6
REMARK    5  A    between atoms: _6  and  _7
REMARK    6  A    between atoms: _7  and  _8
REMARK    7  A    between atoms: _8  and  _9
REMARK    8  A    between atoms: _23  and  _24
REMARK    9  A    between atoms: _24  and  _25
REMARK   10  A    between atoms: _24  and  _27
REMARK   11  A    between atoms: _27  and  _28
REMARK   12  A    between atoms: _28  and  _29
REMARK   13  A    between atoms: _28  and  _30
REMARK   14  A    between atoms: _42  and  _43
REMARK   15  A    between atoms: _43  and  _44
REMARK   16  A    between atoms: _43  and  _46
REMARK   17  A    between atoms: _46  and  _47
REMARK   18  A    between atoms: _47  and  _48
REMARK   19  A    between atoms: _59  and  _60
REMARK   20  A    between atoms: _60  and  _61
REMARK   21  A    between atoms: _60  and  _63
REMARK   22  A    between atoms: _63  and  _64
REMARK   23  A    between atoms: _73  and  _74
REMARK   24  A    between atoms: _74  and  _75
REMARK   25  A    between atoms: _74  and  _77
REMARK   26  A    between atoms: _77  and  _78
REMARK   27  A    between atoms: _87  and  _88
REMARK   28  A    between atoms: _88  and  _89
REMARK   29  A    between atoms: _88  and  _91
REMARK   30  A    between atoms: _91  and  _92
REMARK   31  A    between atoms: _92  and  _93
REMARK                            x       y       z     vdW  Elec       q    Type
REMARK                         _______ _______ _______ _____ _____    ______ ____
ROOT
ATOM      1  C   GLN A   3       6.596   2.312  22.229  0.00  0.00    +0.234 C 
ATOM      2  O   GLN A   3       5.495   2.599  21.763  0.00  0.00    -0.274 OA
ATOM      3  N   ASN A   4       7.257   1.149  21.929  0.00  0.00    -0.302 N 
ATOM      4  H   ASN A   4       8.172   0.943  22.317  0.00  0.00    +0.150 HD
ENDROOT
BRANCH   3   5
ATOM      5  CA  ASN A   4       6.749   0.202  20.934  0.00  0.00    +0.168 C 
BRANCH   5   6
ATOM      6  C   ASN A   4       7.485  -1.122  21.181  0.00  0.00    +0.234 C 
ATOM      7  N   ASN A   5       6.758  -2.075  21.844  0.00  0.00    -0.302 N 
ATOM      8  H   ASN A   5       5.789  -1.911  22.111  0.00  0.00    +0.150 HD
ATOM      9  O   ASN A   4       8.632  -1.313  20.777  0.00  0.00    -0.274 OA
BRANCH   7  10
ATOM     10  CA  ASN A   5       7.291  -3.396  22.180  0.00  0.00    +0.168 C 
BRANCH  10  11
ATOM     11  C   ASN A   5       6.152  -4.399  21.929  0.00  0.00    +0.234 C 
ATOM     12  N   GLU A   6       5.409  -4.723  23.033  0.00  0.00    -0.304 N 
ATOM     13  H   GLU A   6       5.638  -4.356  23.952  0.00  0.00    +0.149 HD
ATOM     14  O   ASN A   5       5.917  -4.825  20.798  0.00  0.00    -0.274 OA
BRANCH  12  15
ATOM     15  CA  GLU A   6       4.297  -5.675  23.000  0.00  0.00    +0.136 C 
BRANCH  15  16
ATOM     16  C   GLU A   6       3.054  -4.896  23.419  0.00  0.00    +0.245 C 
ATOM     17  O   GLU A   6       3.065  -4.016  24.283  0.00  0.00    -0.299 OA
ENDBRANCH  15  16
BRANCH  15  18
ATOM     18  CB  GLU A   6       4.544  -6.850  23.944  0.00  0.00    +0.035 C 
BRANCH  18  19
ATOM     19  CG  GLU A   6       5.247  -6.426  25.230  0.00  0.00    +0.054 C 
BRANCH  19  20
ATOM     20  CD  GLU A   6       4.523  -6.853  26.509  0.00  0.00    +0.042 C 
ATOM     21  OE2 GLU A   6       3.266  -6.799  26.425  0.00  0.00    -0.550 OA
ATOM     22  OE1 GLU A   6       5.258  -7.193  27.476  0.00  0.00    -0.550 OA
ENDBRANCH  19  20
ENDBRANCH  18  19
ENDBRANCH  15  18
ENDBRANCH  12  15
ENDBRANCH  10  11
BRANCH  10  23
ATOM     23  CB  ASN A   5       7.726  -3.491  23.641  0.00  0.00    +0.127 C 
BRANCH  23  24
ATOM     24  CG  ASN A   5       8.755  -2.453  24.025  0.00  0.00    +0.213 C 
ATOM     25  OD1 ASN A   5       8.595  -1.642  24.935  0.00  0.00    -0.276 OA
ATOM     26  ND2 ASN A   5       9.922  -2.486  23.318  0.00  0.00    -0.329 N 
ATOM     27 HD21 ASN A   5      10.566  -1.726  23.489  0.00  0.00    +0.145 HD
ATOM     28 HD22 ASN A   5       9.986  -2.931  22.412  0.00  0.00    +0.145 HD
ENDBRANCH  23  24
ENDBRANCH  10  23
ENDBRANCH   7  10
ENDBRANCH   5   6
BRANCH   5  29
ATOM     29  CB  ASN A   4       7.025   0.653  19.501  0.00  0.00    +0.127 C 
BRANCH  29  30
ATOM     30  CG  ASN A   4       5.795   0.531  18.640  0.00  0.00    +0.213 C 
ATOM     31  ND2 ASN A   4       4.692   1.189  19.094  0.00  0.00    -0.329 N 
ATOM     32 HD21 ASN A   4       4.599   1.523  20.044  0.00  0.00    +0.145 HD
ATOM     33 HD22 ASN A   4       3.840   1.080  18.557  0.00  0.00    +0.145 HD
ATOM     34  OD1 ASN A   4       5.781  -0.086  17.579  0.00  0.00    -0.276 OA
ENDBRANCH  29  30
ENDBRANCH   5  29
ENDBRANCH   3   5
BRANCH   1  35
ATOM     35  CA  GLN A   3       7.312   3.243  23.223  0.00  0.00    +0.159 C 
BRANCH  35  37
ATOM     36  C   LEU A   2       6.207   3.600  25.428  0.00  0.00    +0.234 C 
ATOM     37  N   GLN A   3       6.903   2.800  24.556  0.00  0.00    -0.302 N 
ATOM     38  H   GLN A   3       7.111   1.831  24.795  0.00  0.00    +0.150 HD
ATOM     39  O   LEU A   2       5.930   4.773  25.163  0.00  0.00    -0.274 OA
BRANCH  36  40
ATOM     40  CA  LEU A   2       5.824   2.935  26.774  0.00  0.00    +0.159 C 
BRANCH  40  43
ATOM     41  C   LYS A   1       4.724   0.762  26.288  0.00  0.00    +0.230 C 
ATOM     42  O   LYS A   1       3.588   1.204  26.439  0.00  0.00    -0.274 OA
ATOM     43  N   LEU A   2       5.864   1.486  26.560  0.00  0.00    -0.303 N 
ATOM     44  H   LEU A   2       6.753   1.125  26.233  0.00  0.00    +0.149 HD
BRANCH  41  45
ATOM     45  CA  LYS A   1       4.988  -0.649  25.712  0.00  0.00    +0.138 C 
BRANCH  45  46
ATOM     46  N   LYS A   1       5.727  -0.526  24.445  0.00  0.00    -0.320 NA
ATOM     47  H1  LYS A   1       6.593  -1.064  24.516  0.00  0.00    +0.119 HD
ATOM     48  H2  LYS A   1       5.191  -1.014  23.721  0.00  0.00    +0.119 HD
ENDBRANCH  45  46
BRANCH  45  49
ATOM     49  CB  LYS A   1       5.813  -1.474  26.720  0.00  0.00    +0.028 C 
BRANCH  49  50
ATOM     50  CG  LYS A   1       5.646  -2.976  26.477  0.00  0.00    +0.007 C 
BRANCH  50  51
ATOM     51  CD  LYS A   1       6.302  -3.864  27.535  0.00  0.00    +0.051 C 
BRANCH  51  52
ATOM     52  CE  LYS A   1       7.672  -4.284  27.014  0.00  0.00    +0.127 C 
BRANCH  52  53
ATOM     53  NZ  LYS A   1       7.902  -5.727  27.210  0.00  0.00    +0.219 N 
ATOM     54  HZ1 LYS A   1       7.107  -6.295  26.896  0.00  0.00    +0.199 HD
ATOM     55  HZ2 LYS A   1       8.702  -5.997  26.597  0.00  0.00    +0.199 HD
ATOM     56  HZ3 LYS A   1       8.136  -5.972  28.177  0.00  0.00    +0.199 HD
ENDBRANCH  52  53
ENDBRANCH  51  52
ENDBRANCH  50  51
ENDBRANCH  49  50
ENDBRANCH  45  49
ENDBRANCH  41  45
ENDBRANCH  40  43
BRANCH  40  57
ATOM     57  CB  LEU A   2       6.787   3.350  27.892  0.00  0.00    +0.034 C 
BRANCH  57  58
ATOM     58  CG  LEU A   2       6.201   3.195  29.312  0.00  0.00    -0.015 C 
ATOM     59  CD2 LEU A   2       4.694   3.461  29.349  0.00  0.00    +0.007 C 
ATOM     60  CD1 LEU A   2       6.915   4.144  30.278  0.00  0.00    +0.007 C 
ENDBRANCH  57  58
ENDBRANCH  40  57
ENDBRANCH  36  40
ENDBRANCH  35  37
BRANCH  35  61
ATOM     61  CB  GLN A   3       8.835   3.134  23.057  0.00  0.00    +0.041 C 
BRANCH  61  62
ATOM     62  CG  GLN A   3       9.541   2.627  24.312  0.00  0.00    +0.098 C 
BRANCH  62  63
ATOM     63  CD  GLN A   3      10.133   1.251  24.062  0.00  0.00    +0.211 C 
ATOM     64  NE2 GLN A   3      10.671   0.656  25.163  0.00  0.00    -0.329 N 
ATOM     65 HE21 GLN A   3      11.068  -0.272  25.102  0.00  0.00    +0.145 HD
ATOM     66 HE22 GLN A   3      10.576   1.047  26.099  0.00  0.00    +0.145 HD
ATOM     67  OE1 GLN A   3      10.168   0.711  22.952  0.00  0.00    -0.276 OA
ENDBRANCH  62  63
ENDBRANCH  61  62
ENDBRANCH  35  61
ENDBRANCH   1  35
TORSDOF 29
ENDMDL
MODEL 12
REMARK VINA RESULT:      -5.3      2.146      5.744
REMARK  Name = KLQNNE-mmff94.pdb
REMARK  31 active torsions:
REMARK  status: ('A' for Active; 'I' for Inactive)
REMARK    1  A    between atoms: _1  and  _2
REMARK    2  A    between atoms: _2  and  _3
REMARK    3  A    between atoms: _2  and  _5
REMARK    4  A    between atoms: _5  and  _6
REMARK    5  A    between atoms: _6  and  _7
REMARK    6  A    between atoms: _7  and  _8
REMARK    7  A    between atoms: _8  and  _9
REMARK    8  A    between atoms: _23  and  _24
REMARK    9  A    between atoms: _24  and  _25
REMARK   10  A    between atoms: _24  and  _27
REMARK   11  A    between atoms: _27  and  _28
REMARK   12  A    between atoms: _28  and  _29
REMARK   13  A    between atoms: _28  and  _30
REMARK   14  A    between atoms: _42  and  _43
REMARK   15  A    between atoms: _43  and  _44
REMARK   16  A    between atoms: _43  and  _46
REMARK   17  A    between atoms: _46  and  _47
REMARK   18  A    between atoms: _47  and  _48
REMARK   19  A    between atoms: _59  and  _60
REMARK   20  A    between atoms: _60  and  _61
REMARK   21  A    between atoms: _60  and  _63
REMARK   22  A    between atoms: _63  and  _64
REMARK   23  A    between atoms: _73  and  _74
REMARK   24  A    between atoms: _74  and  _75
REMARK   25  A    between atoms: _74  and  _77
REMARK   26  A    between atoms: _77  and  _78
REMARK   27  A    between atoms: _87  and  _88
REMARK   28  A    between atoms: _88  and  _89
REMARK   29  A    between atoms: _88  and  _91
REMARK   30  A    between atoms: _91  and  _92
REMARK   31  A    between atoms: _92  and  _93
REMARK                            x       y       z     vdW  Elec       q    Type
REMARK                         _______ _______ _______ _____ _____    ______ ____
ROOT
ATOM      1  C   GLN A   3       9.248  -1.222  23.872  0.00  0.00    +0.234 C 
ATOM      2  O   GLN A   3       9.646  -1.402  22.722  0.00  0.00    -0.274 OA
ATOM      3  N   ASN A   4       8.996  -2.248  24.747  0.00  0.00    -0.302 N 
ATOM      4  H   ASN A   4       8.682  -2.071  25.695  0.00  0.00    +0.150 HD
ENDROOT
BRANCH   3   5
ATOM      5  CA  ASN A   4       9.291  -3.643  24.414  0.00  0.00    +0.168 C 
BRANCH   5   6
ATOM      6  C   ASN A   4       8.087  -4.162  23.618  0.00  0.00    +0.234 C 
ATOM      7  N   ASN A   5       7.460  -3.228  22.838  0.00  0.00    -0.302 N 
ATOM      8  H   ASN A   5       7.805  -2.271  22.776  0.00  0.00    +0.150 HD
ATOM      9  O   ASN A   4       7.743  -5.344  23.658  0.00  0.00    -0.274 OA
BRANCH   7  10
ATOM     10  CA  ASN A   5       6.288  -3.530  22.015  0.00  0.00    +0.168 C 
BRANCH  10  11
ATOM     11  C   ASN A   5       6.139  -2.359  21.027  0.00  0.00    +0.234 C 
ATOM     12  N   GLU A   6       6.882  -1.249  21.327  0.00  0.00    -0.304 N 
ATOM     13  H   GLU A   6       7.447  -1.200  22.169  0.00  0.00    +0.149 HD
ATOM     14  O   ASN A   5       5.435  -2.461  20.023  0.00  0.00    -0.274 OA
BRANCH  12  15
ATOM     15  CA  GLU A   6       6.858  -0.027  20.519  0.00  0.00    +0.136 C 
BRANCH  15  16
ATOM     16  C   GLU A   6       7.717  -0.311  19.290  0.00  0.00    +0.245 C 
ATOM     17  O   GLU A   6       7.479   0.157  18.174  0.00  0.00    -0.299 OA
ENDBRANCH  15  16
BRANCH  15  18
ATOM     18  CB  GLU A   6       7.407   1.165  21.299  0.00  0.00    +0.035 C 
BRANCH  18  19
ATOM     19  CG  GLU A   6       6.336   2.212  21.594  0.00  0.00    +0.054 C 
BRANCH  19  20
ATOM     20  CD  GLU A   6       6.748   3.249  22.641  0.00  0.00    +0.042 C 
ATOM     21  OE2 GLU A   6       7.057   4.370  22.154  0.00  0.00    -0.550 OA
ATOM     22  OE1 GLU A   6       6.737   2.861  23.841  0.00  0.00    -0.550 OA
ENDBRANCH  19  20
ENDBRANCH  18  19
ENDBRANCH  15  18
ENDBRANCH  12  15
ENDBRANCH  10  11
BRANCH  10  23
ATOM     23  CB  ASN A   5       5.011  -3.648  22.845  0.00  0.00    +0.127 C 
BRANCH  23  24
ATOM     24  CG  ASN A   5       4.333  -4.991  22.705  0.00  0.00    +0.213 C 
ATOM     25  OD1 ASN A   5       3.120  -5.154  22.817  0.00  0.00    -0.276 OA
ATOM     26  ND2 ASN A   5       5.152  -6.039  22.398  0.00  0.00    -0.329 N 
ATOM     27 HD21 ASN A   5       4.725  -6.955  22.416  0.00  0.00    +0.145 HD
ATOM     28 HD22 ASN A   5       6.148  -6.007  22.567  0.00  0.00    +0.145 HD
ENDBRANCH  23  24
ENDBRANCH  10  23
ENDBRANCH   7  10
ENDBRANCH   5   6
BRANCH   5  29
ATOM     29  CB  ASN A   4       9.469  -4.516  25.654  0.00  0.00    +0.127 C 
BRANCH  29  30
ATOM     30  CG  ASN A   4       8.230  -4.514  26.511  0.00  0.00    +0.213 C 
ATOM     31  ND2 ASN A   4       7.765  -5.741  26.877  0.00  0.00    -0.329 N 
ATOM     32 HD21 ASN A   4       8.051  -6.599  26.423  0.00  0.00    +0.145 HD
ATOM     33 HD22 ASN A   4       6.905  -5.765  27.411  0.00  0.00    +0.145 HD
ATOM     34  OD1 ASN A   4       7.683  -3.484  26.891  0.00  0.00    -0.276 OA
ENDBRANCH  29  30
ENDBRANCH   5  29
ENDBRANCH   3   5
BRANCH   1  35
ATOM     35  CA  GLN A   3       8.972   0.192  24.412  0.00  0.00    +0.159 C 
BRANCH  35  37
ATOM     36  C   LEU A   2       6.669  -0.337  25.201  0.00  0.00    +0.234 C 
ATOM     37  N   GLN A   3       7.965   0.033  25.461  0.00  0.00    -0.302 N 
ATOM     38  H   GLN A   3       8.286   0.157  26.420  0.00  0.00    +0.150 HD
ATOM     39  O   LEU A   2       6.252  -0.505  24.051  0.00  0.00    -0.274 OA
BRANCH  36  40
ATOM     40  CA  LEU A   2       5.764  -0.497  26.449  0.00  0.00    +0.159 C 
BRANCH  40  43
ATOM     41  C   LYS A   1       3.945  -2.121  26.920  0.00  0.00    +0.230 C 
ATOM     42  O   LYS A   1       3.352  -1.367  27.687  0.00  0.00    -0.274 OA
ATOM     43  N   LEU A   2       5.182  -1.840  26.383  0.00  0.00    -0.303 N 
ATOM     44  H   LEU A   2       5.517  -2.416  25.618  0.00  0.00    +0.149 HD
BRANCH  41  45
ATOM     45  CA  LYS A   1       3.324  -3.450  26.429  0.00  0.00    +0.138 C 
BRANCH  45  46
ATOM     46  N   LYS A   1       2.592  -3.209  25.175  0.00  0.00    -0.320 NA
ATOM     47  H1  LYS A   1       3.172  -2.633  24.562  0.00  0.00    +0.119 HD
ATOM     48  H2  LYS A   1       2.519  -4.103  24.678  0.00  0.00    +0.119 HD
ENDBRANCH  45  46
BRANCH  45  49
ATOM     49  CB  LYS A   1       4.440  -4.487  26.192  0.00  0.00    +0.028 C 
BRANCH  49  50
ATOM     50  CG  LYS A   1       4.036  -5.867  26.717  0.00  0.00    +0.007 C 
BRANCH  50  51
ATOM     51  CD  LYS A   1       2.853  -6.501  25.985  0.00  0.00    +0.051 C 
BRANCH  51  52
ATOM     52  CE  LYS A   1       3.380  -7.670  25.160  0.00  0.00    +0.127 C 
BRANCH  52  53
ATOM     53  NZ  LYS A   1       2.532  -7.919  23.980  0.00  0.00    +0.219 N 
ATOM     54  HZ1 LYS A   1       1.795  -7.214  23.873  0.00  0.00    +0.199 HD
ATOM     55  HZ2 LYS A   1       3.142  -7.822  23.138  0.00  0.00    +0.199 HD
ATOM     56  HZ3 LYS A   1       2.115  -8.855  23.973  0.00  0.00    +0.199 HD
ENDBRANCH  52  53
ENDBRANCH  51  52
ENDBRANCH  50  51
ENDBRANCH  49  50
ENDBRANCH  45  49
ENDBRANCH  41  45
ENDBRANCH  40  43
BRANCH  40  57
ATOM     57  CB  LEU A   2       6.564  -0.310  27.742  0.00  0.00    +0.034 C 
BRANCH  57  58
ATOM     58  CG  LEU A   2       6.238   0.998  28.496  0.00  0.00    -0.015 C 
ATOM     59  CD2 LEU A   2       7.427   1.506  29.314  0.00  0.00    +0.007 C 
ATOM     60  CD1 LEU A   2       5.033   0.785  29.415  0.00  0.00    +0.007 C 
ENDBRANCH  57  58
ENDBRANCH  40  57
ENDBRANCH  36  40
ENDBRANCH  35  37
BRANCH  35  61
ATOM     61  CB  GLN A   3      10.259   0.807  24.981  0.00  0.00    +0.041 C 
BRANCH  61  62
ATOM     62  CG  GLN A   3      11.155   1.424  23.910  0.00  0.00    +0.098 C 
BRANCH  62  63
ATOM     63  CD  GLN A   3      10.450   2.592  23.244  0.00  0.00    +0.211 C 
ATOM     64  NE2 GLN A   3      10.339   2.491  21.890  0.00  0.00    -0.329 N 
ATOM     65 HE21 GLN A   3       9.863   3.207  21.360  0.00  0.00    +0.145 HD
ATOM     66 HE22 GLN A   3      10.598   1.647  21.381  0.00  0.00    +0.145 HD
ATOM     67  OE1 GLN A   3      10.034   3.580  23.856  0.00  0.00    -0.276 OA
ENDBRANCH  62  63
ENDBRANCH  61  62
ENDBRANCH  35  61
ENDBRANCH   1  35
TORSDOF 29
ENDMDL
MODEL 13
REMARK VINA RESULT:      -5.3      2.164      5.175
REMARK  Name = KLQNNE-mmff94.pdb
REMARK  31 active torsions:
REMARK  status: ('A' for Active; 'I' for Inactive)
REMARK    1  A    between atoms: _1  and  _2
REMARK    2  A    between atoms: _2  and  _3
REMARK    3  A    between atoms: _2  and  _5
REMARK    4  A    between atoms: _5  and  _6
REMARK    5  A    between atoms: _6  and  _7
REMARK    6  A    between atoms: _7  and  _8
REMARK    7  A    between atoms: _8  and  _9
REMARK    8  A    between atoms: _23  and  _24
REMARK    9  A    between atoms: _24  and  _25
REMARK   10  A    between atoms: _24  and  _27
REMARK   11  A    between atoms: _27  and  _28
REMARK   12  A    between atoms: _28  and  _29
REMARK   13  A    between atoms: _28  and  _30
REMARK   14  A    between atoms: _42  and  _43
REMARK   15  A    between atoms: _43  and  _44
REMARK   16  A    between atoms: _43  and  _46
REMARK   17  A    between atoms: _46  and  _47
REMARK   18  A    between atoms: _47  and  _48
REMARK   19  A    between atoms: _59  and  _60
REMARK   20  A    between atoms: _60  and  _61
REMARK   21  A    between atoms: _60  and  _63
REMARK   22  A    between atoms: _63  and  _64
REMARK   23  A    between atoms: _73  and  _74
REMARK   24  A    between atoms: _74  and  _75
REMARK   25  A    between atoms: _74  and  _77
REMARK   26  A    between atoms: _77  and  _78
REMARK   27  A    between atoms: _87  and  _88
REMARK   28  A    between atoms: _88  and  _89
REMARK   29  A    between atoms: _88  and  _91
REMARK   30  A    between atoms: _91  and  _92
REMARK   31  A    between atoms: _92  and  _93
REMARK                            x       y       z     vdW  Elec       q    Type
REMARK                         _______ _______ _______ _____ _____    ______ ____
ROOT
ATOM      1  C   GLN A   3       6.253  -1.202  20.592  0.00  0.00    +0.234 C 
ATOM      2  O   GLN A   3       5.609  -1.614  19.628  0.00  0.00    -0.274 OA
ATOM      3  N   ASN A   4       6.362  -1.894  21.771  0.00  0.00    -0.302 N 
ATOM      4  H   ASN A   4       6.912  -1.538  22.546  0.00  0.00    +0.150 HD
ENDROOT
BRANCH   3   5
ATOM      5  CA  ASN A   4       5.810  -3.240  21.935  0.00  0.00    +0.168 C 
BRANCH   5   6
ATOM      6  C   ASN A   4       5.274  -3.315  23.371  0.00  0.00    +0.234 C 
ATOM      7  N   ASN A   5       4.458  -4.384  23.631  0.00  0.00    -0.302 N 
ATOM      8  H   ASN A   5       4.264  -5.087  22.920  0.00  0.00    +0.150 HD
ATOM      9  O   ASN A   4       5.590  -2.488  24.227  0.00  0.00    -0.274 OA
BRANCH   7  10
ATOM     10  CA  ASN A   5       3.843  -4.621  24.937  0.00  0.00    +0.168 C 
BRANCH  10  11
ATOM     11  C   ASN A   5       4.774  -5.592  25.685  0.00  0.00    +0.234 C 
ATOM     12  N   GLU A   6       5.869  -5.012  26.268  0.00  0.00    -0.304 N 
ATOM     13  H   GLU A   6       6.064  -4.021  26.163  0.00  0.00    +0.149 HD
ATOM     14  O   ASN A   5       4.502  -6.788  25.779  0.00  0.00    -0.274 OA
BRANCH  12  15
ATOM     15  CA  GLU A   6       6.881  -5.772  27.006  0.00  0.00    +0.136 C 
BRANCH  15  16
ATOM     16  C   GLU A   6       6.351  -5.919  28.430  0.00  0.00    +0.245 C 
ATOM     17  O   GLU A   6       6.179  -7.008  28.980  0.00  0.00    -0.299 OA
ENDBRANCH  15  16
BRANCH  15  18
ATOM     18  CB  GLU A   6       8.228  -5.055  27.001  0.00  0.00    +0.035 C 
BRANCH  18  19
ATOM     19  CG  GLU A   6       8.200  -3.769  26.178  0.00  0.00    +0.054 C 
BRANCH  19  20
ATOM     20  CD  GLU A   6       9.007  -3.840  24.880  0.00  0.00    +0.042 C 
ATOM     21  OE2 GLU A   6       9.642  -4.920  24.733  0.00  0.00    -0.550 OA
ATOM     22  OE1 GLU A   6       8.949  -2.826  24.133  0.00  0.00    -0.550 OA
ENDBRANCH  19  20
ENDBRANCH  18  19
ENDBRANCH  15  18
ENDBRANCH  12  15
ENDBRANCH  10  11
BRANCH  10  23
ATOM     23  CB  ASN A   5       2.456  -5.251  24.820  0.00  0.00    +0.127 C 
BRANCH  23  24
ATOM     24  CG  ASN A   5       2.208  -5.897  23.477  0.00  0.00    +0.213 C 
ATOM     25  OD1 ASN A   5       1.685  -5.315  22.529  0.00  0.00    -0.276 OA
ATOM     26  ND2 ASN A   5       2.644  -7.184  23.349  0.00  0.00    -0.329 N 
ATOM     27 HD21 ASN A   5       2.380  -7.659  22.496  0.00  0.00    +0.145 HD
ATOM     28 HD22 ASN A   5       2.818  -7.772  24.153  0.00  0.00    +0.145 HD
ENDBRANCH  23  24
ENDBRANCH  10  23
ENDBRANCH   7  10
ENDBRANCH   5   6
BRANCH   5  29
ATOM     29  CB  ASN A   4       6.861  -4.332  21.750  0.00  0.00    +0.127 C 
BRANCH  29  30
ATOM     30  CG  ASN A   4       6.275  -5.553  21.091  0.00  0.00    +0.213 C 
ATOM     31  ND2 ASN A   4       6.178  -6.659  21.882  0.00  0.00    -0.329 N 
ATOM     32 HD21 ASN A   4       6.679  -6.760  22.755  0.00  0.00    +0.145 HD
ATOM     33 HD22 ASN A   4       5.833  -7.506  21.446  0.00  0.00    +0.145 HD
ATOM     34  OD1 ASN A   4       5.874  -5.560  19.932  0.00  0.00    -0.276 OA
ENDBRANCH  29  30
ENDBRANCH   5  29
ENDBRANCH   3   5
BRANCH   1  35
ATOM     35  CA  GLN A   3       6.971   0.158  20.552  0.00  0.00    +0.159 C 
BRANCH  35  37
ATOM     36  C   LEU A   2       5.865   1.994  21.820  0.00  0.00    +0.234 C 
ATOM     37  N   GLN A   3       6.609   0.841  21.793  0.00  0.00    -0.302 N 
ATOM     38  H   GLN A   3       6.890   0.385  22.661  0.00  0.00    +0.150 HD
ATOM     39  O   LEU A   2       5.500   2.565  20.788  0.00  0.00    -0.274 OA
BRANCH  36  40
ATOM     40  CA  LEU A   2       5.544   2.542  23.234  0.00  0.00    +0.159 C 
BRANCH  40  43
ATOM     41  C   LYS A   1       5.541   0.972  25.158  0.00  0.00    +0.230 C 
ATOM     42  O   LYS A   1       4.368   1.195  25.450  0.00  0.00    -0.274 OA
ATOM     43  N   LEU A   2       6.230   1.672  24.193  0.00  0.00    -0.303 N 
ATOM     44  H   LEU A   2       7.123   1.308  23.880  0.00  0.00    +0.149 HD
BRANCH  41  45
ATOM     45  CA  LYS A   1       6.347  -0.173  25.814  0.00  0.00    +0.138 C 
BRANCH  45  46
ATOM     46  N   LYS A   1       7.680  -0.245  25.193  0.00  0.00    -0.320 NA
ATOM     47  H1  LYS A   1       7.589  -0.677  24.271  0.00  0.00    +0.119 HD
ATOM     48  H2  LYS A   1       7.983   0.712  24.990  0.00  0.00    +0.119 HD
ENDBRANCH  45  46
BRANCH  45  49
ATOM     49  CB  LYS A   1       6.490   0.094  27.326  0.00  0.00    +0.028 C 
BRANCH  49  50
ATOM     50  CG  LYS A   1       5.319  -0.505  28.108  0.00  0.00    +0.007 C 
BRANCH  50  51
ATOM     51  CD  LYS A   1       4.866  -1.881  27.616  0.00  0.00    +0.051 C 
BRANCH  51  52
ATOM     52  CE  LYS A   1       3.342  -1.906  27.626  0.00  0.00    +0.127 C 
BRANCH  52  53
ATOM     53  NZ  LYS A   1       2.781  -0.595  27.252  0.00  0.00    +0.219 N 
ATOM     54  HZ1 LYS A   1       2.201  -0.192  27.997  0.00  0.00    +0.199 HD
ATOM     55  HZ2 LYS A   1       3.584   0.060  27.133  0.00  0.00    +0.199 HD
ATOM     56  HZ3 LYS A   1       2.247  -0.618  26.378  0.00  0.00    +0.199 HD
ENDBRANCH  52  53
ENDBRANCH  51  52
ENDBRANCH  50  51
ENDBRANCH  49  50
ENDBRANCH  45  49
ENDBRANCH  41  45
ENDBRANCH  40  43
BRANCH  40  57
ATOM     57  CB  LEU A   2       6.008   3.995  23.384  0.00  0.00    +0.034 C 
BRANCH  57  58
ATOM     58  CG  LEU A   2       7.357   4.295  22.696  0.00  0.00    -0.015 C 
ATOM     59  CD2 LEU A   2       8.530   4.255  23.679  0.00  0.00    +0.007 C 
ATOM     60  CD1 LEU A   2       7.303   5.664  22.014  0.00  0.00    +0.007 C 
ENDBRANCH  57  58
ENDBRANCH  40  57
ENDBRANCH  36  40
ENDBRANCH  35  37
BRANCH  35  61
ATOM     61  CB  GLN A   3       8.492  -0.043  20.465  0.00  0.00    +0.041 C 
BRANCH  61  62
ATOM     62  CG  GLN A   3       9.264   0.765  21.505  0.00  0.00    +0.098 C 
BRANCH  62  63
ATOM     63  CD  GLN A   3      10.041  -0.164  22.421  0.00  0.00    +0.211 C 
ATOM     64  NE2 GLN A   3      10.265  -1.407  21.910  0.00  0.00    -0.329 N 
ATOM     65 HE21 GLN A   3      10.795  -2.089  22.436  0.00  0.00    +0.145 HD
ATOM     66 HE22 GLN A   3      10.038  -1.654  20.948  0.00  0.00    +0.145 HD
ATOM     67  OE1 GLN A   3      10.417   0.148  23.554  0.00  0.00    -0.276 OA
ENDBRANCH  62  63
ENDBRANCH  61  62
ENDBRANCH  35  61
ENDBRANCH   1  35
TORSDOF 29
ENDMDL
MODEL 14
REMARK VINA RESULT:      -5.3      2.204      6.785
REMARK  Name = KLQNNE-mmff94.pdb
REMARK  31 active torsions:
REMARK  status: ('A' for Active; 'I' for Inactive)
REMARK    1  A    between atoms: _1  and  _2
REMARK    2  A    between atoms: _2  and  _3
REMARK    3  A    between atoms: _2  and  _5
REMARK    4  A    between atoms: _5  and  _6
REMARK    5  A    between atoms: _6  and  _7
REMARK    6  A    between atoms: _7  and  _8
REMARK    7  A    between atoms: _8  and  _9
REMARK    8  A    between atoms: _23  and  _24
REMARK    9  A    between atoms: _24  and  _25
REMARK   10  A    between atoms: _24  and  _27
REMARK   11  A    between atoms: _27  and  _28
REMARK   12  A    between atoms: _28  and  _29
REMARK   13  A    between atoms: _28  and  _30
REMARK   14  A    between atoms: _42  and  _43
REMARK   15  A    between atoms: _43  and  _44
REMARK   16  A    between atoms: _43  and  _46
REMARK   17  A    between atoms: _46  and  _47
REMARK   18  A    between atoms: _47  and  _48
REMARK   19  A    between atoms: _59  and  _60
REMARK   20  A    between atoms: _60  and  _61
REMARK   21  A    between atoms: _60  and  _63
REMARK   22  A    between atoms: _63  and  _64
REMARK   23  A    between atoms: _73  and  _74
REMARK   24  A    between atoms: _74  and  _75
REMARK   25  A    between atoms: _74  and  _77
REMARK   26  A    between atoms: _77  and  _78
REMARK   27  A    between atoms: _87  and  _88
REMARK   28  A    between atoms: _88  and  _89
REMARK   29  A    between atoms: _88  and  _91
REMARK   30  A    between atoms: _91  and  _92
REMARK   31  A    between atoms: _92  and  _93
REMARK                            x       y       z     vdW  Elec       q    Type
REMARK                         _______ _______ _______ _____ _____    ______ ____
ROOT
ATOM      1  C   GLN A   3       8.489   1.159  23.019  0.00  0.00    +0.234 C 
ATOM      2  O   GLN A   3       8.386   0.605  24.113  0.00  0.00    -0.274 OA
ATOM      3  N   ASN A   4       8.561   2.521  22.873  0.00  0.00    -0.302 N 
ATOM      4  H   ASN A   4       8.660   2.952  21.959  0.00  0.00    +0.150 HD
ENDROOT
BRANCH   3   5
ATOM      5  CA  ASN A   4       8.638   3.423  24.024  0.00  0.00    +0.168 C 
BRANCH   5   6
ATOM      6  C   ASN A   4       7.234   4.015  24.204  0.00  0.00    +0.234 C 
ATOM      7  N   ASN A   5       6.279   3.128  24.626  0.00  0.00    -0.302 N 
ATOM      8  H   ASN A   5       6.513   2.159  24.836  0.00  0.00    +0.150 HD
ATOM      9  O   ASN A   4       7.003   5.209  24.013  0.00  0.00    -0.274 OA
BRANCH   7  10
ATOM     10  CA  ASN A   5       4.882   3.503  24.845  0.00  0.00    +0.168 C 
BRANCH  10  11
ATOM     11  C   ASN A   5       4.480   2.904  26.204  0.00  0.00    +0.234 C 
ATOM     12  N   GLU A   6       5.195   1.800  26.586  0.00  0.00    -0.304 N 
ATOM     13  H   GLU A   6       5.902   1.391  25.982  0.00  0.00    +0.149 HD
ATOM     14  O   ASN A   5       3.611   3.429  26.899  0.00  0.00    -0.274 OA
BRANCH  12  15
ATOM     15  CA  GLU A   6       4.947   1.078  27.836  0.00  0.00    +0.136 C 
BRANCH  15  16
ATOM     16  C   GLU A   6       6.303   0.559  28.307  0.00  0.00    +0.245 C 
ATOM     17  O   GLU A   6       7.351   0.738  27.682  0.00  0.00    -0.299 OA
ENDBRANCH  15  16
BRANCH  15  18
ATOM     18  CB  GLU A   6       3.970  -0.076  27.625  0.00  0.00    +0.035 C 
BRANCH  18  19
ATOM     19  CG  GLU A   6       4.678  -1.387  27.292  0.00  0.00    +0.054 C 
BRANCH  19  20
ATOM     20  CD  GLU A   6       4.791  -1.673  25.793  0.00  0.00    +0.042 C 
ATOM     21  OE2 GLU A   6       3.871  -2.410  25.345  0.00  0.00    -0.550 OA
ATOM     22  OE1 GLU A   6       5.776  -1.155  25.201  0.00  0.00    -0.550 OA
ENDBRANCH  19  20
ENDBRANCH  18  19
ENDBRANCH  15  18
ENDBRANCH  12  15
ENDBRANCH  10  11
BRANCH  10  23
ATOM     23  CB  ASN A   5       3.957   2.948  23.763  0.00  0.00    +0.127 C 
BRANCH  23  24
ATOM     24  CG  ASN A   5       4.099   3.660  22.437  0.00  0.00    +0.213 C 
ATOM     25  OD1 ASN A   5       3.779   4.833  22.259  0.00  0.00    -0.276 OA
ATOM     26  ND2 ASN A   5       4.654   2.927  21.428  0.00  0.00    -0.329 N 
ATOM     27 HD21 ASN A   5       4.645   3.356  20.512  0.00  0.00    +0.145 HD
ATOM     28 HD22 ASN A   5       4.671   1.916  21.447  0.00  0.00    +0.145 HD
ENDBRANCH  23  24
ENDBRANCH  10  23
ENDBRANCH   7  10
ENDBRANCH   5   6
BRANCH   5  29
ATOM     29  CB  ASN A   4       9.626   4.567  23.807  0.00  0.00    +0.127 C 
BRANCH  29  30
ATOM     30  CG  ASN A   4      10.997   4.050  23.455  0.00  0.00    +0.213 C 
ATOM     31  ND2 ASN A   4      11.857   4.970  22.935  0.00  0.00    -0.329 N 
ATOM     32 HD21 ASN A   4      11.555   5.863  22.567  0.00  0.00    +0.145 HD
ATOM     33 HD22 ASN A   4      12.767   4.634  22.644  0.00  0.00    +0.145 HD
ATOM     34  OD1 ASN A   4      11.343   2.890  23.649  0.00  0.00    -0.276 OA
ENDBRANCH  29  30
ENDBRANCH   5  29
ENDBRANCH   3   5
BRANCH   1  35
ATOM     35  CA  GLN A   3       8.514   0.350  21.711  0.00  0.00    +0.159 C 
BRANCH  35  37
ATOM     36  C   LEU A   2       8.857  -2.051  22.281  0.00  0.00    +0.234 C 
ATOM     37  N   GLN A   3       8.023  -0.985  22.054  0.00  0.00    -0.302 N 
ATOM     38  H   GLN A   3       7.015  -1.080  22.175  0.00  0.00    +0.150 HD
ATOM     39  O   LEU A   2      10.081  -1.966  22.153  0.00  0.00    -0.274 OA
BRANCH  36  40
ATOM     40  CA  LEU A   2       8.149  -3.372  22.678  0.00  0.00    +0.159 C 
BRANCH  40  43
ATOM     41  C   LYS A   1       8.790  -3.792  25.040  0.00  0.00    +0.230 C 
ATOM     42  O   LYS A   1       9.731  -4.526  24.746  0.00  0.00    -0.274 OA
ATOM     43  N   LEU A   2       7.892  -3.301  24.119  0.00  0.00    -0.303 N 
ATOM     44  H   LEU A   2       7.264  -2.558  24.406  0.00  0.00    +0.149 HD
BRANCH  41  45
ATOM     45  CA  LYS A   1       8.556  -3.295  26.486  0.00  0.00    +0.138 C 
BRANCH  45  46
ATOM     46  N   LYS A   1       8.504  -1.824  26.491  0.00  0.00    -0.320 NA
ATOM     47  H1  LYS A   1       8.474  -1.500  27.460  0.00  0.00    +0.119 HD
ATOM     48  H2  LYS A   1       9.403  -1.478  26.142  0.00  0.00    +0.119 HD
ENDBRANCH  45  46
BRANCH  45  49
ATOM     49  CB  LYS A   1       7.228  -3.866  27.022  0.00  0.00    +0.028 C 
BRANCH  49  50
ATOM     50  CG  LYS A   1       7.132  -5.374  26.775  0.00  0.00    +0.007 C 
BRANCH  50  51
ATOM     51  CD  LYS A   1       5.885  -5.811  26.005  0.00  0.00    +0.051 C 
BRANCH  51  52
ATOM     52  CE  LYS A   1       5.070  -6.729  26.909  0.00  0.00    +0.127 C 
BRANCH  52  53
ATOM     53  NZ  LYS A   1       5.775  -6.999  28.175  0.00  0.00    +0.219 N 
ATOM     54  HZ1 LYS A   1       5.197  -7.526  28.839  0.00  0.00    +0.199 HD
ATOM     55  HZ2 LYS A   1       6.584  -7.620  27.950  0.00  0.00    +0.199 HD
ATOM     56  HZ3 LYS A   1       6.131  -6.152  28.628  0.00  0.00    +0.199 HD
ENDBRANCH  52  53
ENDBRANCH  51  52
ENDBRANCH  50  51
ENDBRANCH  49  50
ENDBRANCH  45  49
ENDBRANCH  41  45
ENDBRANCH  40  43
BRANCH  40  57
ATOM     57  CB  LEU A   2       6.843  -3.558  21.897  0.00  0.00    +0.034 C 
BRANCH  57  58
ATOM     58  CG  LEU A   2       6.122  -4.890  22.194  0.00  0.00    -0.015 C 
ATOM     59  CD2 LEU A   2       6.053  -5.798  20.963  0.00  0.00    +0.007 C 
ATOM     60  CD1 LEU A   2       4.708  -4.615  22.711  0.00  0.00    +0.007 C 
ENDBRANCH  57  58
ENDBRANCH  40  57
ENDBRANCH  36  40
ENDBRANCH  35  37
BRANCH  35  61
ATOM     61  CB  GLN A   3       7.610   1.008  20.657  0.00  0.00    +0.041 C 
BRANCH  61  62
ATOM     62  CG  GLN A   3       7.522   0.209  19.359  0.00  0.00    +0.098 C 
BRANCH  62  63
ATOM     63  CD  GLN A   3       6.109   0.262  18.806  0.00  0.00    +0.211 C 
ATOM     64  NE2 GLN A   3       5.711  -0.867  18.156  0.00  0.00    -0.329 N 
ATOM     65 HE21 GLN A   3       4.778  -0.938  17.774  0.00  0.00    +0.145 HD
ATOM     66 HE22 GLN A   3       6.269  -1.720  18.146  0.00  0.00    +0.145 HD
ATOM     67  OE1 GLN A   3       5.374   1.250  18.896  0.00  0.00    -0.276 OA
ENDBRANCH  62  63
ENDBRANCH  61  62
ENDBRANCH  35  61
ENDBRANCH   1  35
TORSDOF 29
ENDMDL
MODEL 15
REMARK VINA RESULT:      -5.3      2.378      7.766
REMARK  Name = KLQNNE-mmff94.pdb
REMARK  31 active torsions:
REMARK  status: ('A' for Active; 'I' for Inactive)
REMARK    1  A    between atoms: _1  and  _2
REMARK    2  A    between atoms: _2  and  _3
REMARK    3  A    between atoms: _2  and  _5
REMARK    4  A    between atoms: _5  and  _6
REMARK    5  A    between atoms: _6  and  _7
REMARK    6  A    between atoms: _7  and  _8
REMARK    7  A    between atoms: _8  and  _9
REMARK    8  A    between atoms: _23  and  _24
REMARK    9  A    between atoms: _24  and  _25
REMARK   10  A    between atoms: _24  and  _27
REMARK   11  A    between atoms: _27  and  _28
REMARK   12  A    between atoms: _28  and  _29
REMARK   13  A    between atoms: _28  and  _30
REMARK   14  A    between atoms: _42  and  _43
REMARK   15  A    between atoms: _43  and  _44
REMARK   16  A    between atoms: _43  and  _46
REMARK   17  A    between atoms: _46  and  _47
REMARK   18  A    between atoms: _47  and  _48
REMARK   19  A    between atoms: _59  and  _60
REMARK   20  A    between atoms: _60  and  _61
REMARK   21  A    between atoms: _60  and  _63
REMARK   22  A    between atoms: _63  and  _64
REMARK   23  A    between atoms: _73  and  _74
REMARK   24  A    between atoms: _74  and  _75
REMARK   25  A    between atoms: _74  and  _77
REMARK   26  A    between atoms: _77  and  _78
REMARK   27  A    between atoms: _87  and  _88
REMARK   28  A    between atoms: _88  and  _89
REMARK   29  A    between atoms: _88  and  _91
REMARK   30  A    between atoms: _91  and  _92
REMARK   31  A    between atoms: _92  and  _93
REMARK                            x       y       z     vdW  Elec       q    Type
REMARK                         _______ _______ _______ _____ _____    ______ ____
ROOT
ATOM      1  C   GLN A   3       6.027  -4.292  22.695  0.00  0.00    +0.234 C 
ATOM      2  O   GLN A   3       5.436  -4.595  21.659  0.00  0.00    -0.274 OA
ATOM      3  N   ASN A   4       5.500  -4.494  23.945  0.00  0.00    -0.302 N 
ATOM      4  H   ASN A   4       6.015  -4.248  24.784  0.00  0.00    +0.150 HD
ENDROOT
BRANCH   3   5
ATOM      5  CA  ASN A   4       4.230  -5.195  24.148  0.00  0.00    +0.168 C 
BRANCH   5   6
ATOM      6  C   ASN A   4       3.691  -4.729  25.507  0.00  0.00    +0.234 C 
ATOM      7  N   ASN A   5       4.602  -4.746  26.530  0.00  0.00    -0.302 N 
ATOM      8  H   ASN A   5       5.571  -5.016  26.371  0.00  0.00    +0.150 HD
ATOM      9  O   ASN A   4       2.533  -4.337  25.646  0.00  0.00    -0.274 OA
BRANCH   7  10
ATOM     10  CA  ASN A   5       4.274  -4.347  27.898  0.00  0.00    +0.168 C 
BRANCH  10  11
ATOM     11  C   ASN A   5       4.333  -2.810  27.928  0.00  0.00    +0.234 C 
ATOM     12  N   GLU A   6       5.200  -2.245  27.030  0.00  0.00    -0.304 N 
ATOM     13  H   GLU A   6       5.788  -2.815  26.431  0.00  0.00    +0.149 HD
ATOM     14  O   ASN A   5       3.607  -2.159  28.680  0.00  0.00    -0.274 OA
BRANCH  12  15
ATOM     15  CA  GLU A   6       5.411  -0.800  26.922  0.00  0.00    +0.136 C 
BRANCH  15  16
ATOM     16  C   GLU A   6       5.464  -0.486  25.429  0.00  0.00    +0.245 C 
ATOM     17  O   GLU A   6       5.331  -1.343  24.552  0.00  0.00    -0.299 OA
ENDBRANCH  15  16
BRANCH  15  18
ATOM     18  CB  GLU A   6       6.707  -0.375  27.610  0.00  0.00    +0.035 C 
BRANCH  18  19
ATOM     19  CG  GLU A   6       7.749   0.141  26.622  0.00  0.00    +0.054 C 
BRANCH  19  20
ATOM     20  CD  GLU A   6       8.886  -0.844  26.342  0.00  0.00    +0.042 C 
ATOM     21  OE2 GLU A   6       9.686  -0.459  25.446  0.00  0.00    -0.550 OA
ATOM     22  OE1 GLU A   6       8.881  -1.907  27.021  0.00  0.00    -0.550 OA
ENDBRANCH  19  20
ENDBRANCH  18  19
ENDBRANCH  15  18
ENDBRANCH  12  15
ENDBRANCH  10  11
BRANCH  10  23
ATOM     23  CB  ASN A   5       5.265  -4.904  28.919  0.00  0.00    +0.127 C 
BRANCH  23  24
ATOM     24  CG  ASN A   5       6.007  -6.124  28.423  0.00  0.00    +0.213 C 
ATOM     25  OD1 ASN A   5       7.166  -6.096  28.016  0.00  0.00    -0.276 OA
ATOM     26  ND2 ASN A   5       5.320  -7.302  28.490  0.00  0.00    -0.329 N 
ATOM     27 HD21 ASN A   5       5.765  -8.100  28.055  0.00  0.00    +0.145 HD
ATOM     28 HD22 ASN A   5       4.311  -7.330  28.549  0.00  0.00    +0.145 HD
ENDBRANCH  23  24
ENDBRANCH  10  23
ENDBRANCH   7  10
ENDBRANCH   5   6
BRANCH   5  29
ATOM     29  CB  ASN A   4       4.398  -6.713  24.185  0.00  0.00    +0.127 C 
BRANCH  29  30
ATOM     30  CG  ASN A   4       3.118  -7.417  23.820  0.00  0.00    +0.213 C 
ATOM     31  ND2 ASN A   4       2.443  -6.898  22.756  0.00  0.00    -0.329 N 
ATOM     32 HD21 ASN A   4       2.623  -5.974  22.385  0.00  0.00    +0.145 HD
ATOM     33 HD22 ASN A   4       1.555  -7.324  22.523  0.00  0.00    +0.145 HD
ATOM     34  OD1 ASN A   4       2.712  -8.414  24.409  0.00  0.00    -0.276 OA
ENDBRANCH  29  30
ENDBRANCH   5  29
ENDBRANCH   3   5
BRANCH   1  35
ATOM     35  CA  GLN A   3       7.413  -3.626  22.660  0.00  0.00    +0.159 C 
BRANCH  35  37
ATOM     36  C   LEU A   2       8.221  -1.460  21.732  0.00  0.00    +0.234 C 
ATOM     37  N   GLN A   3       7.197  -2.272  22.151  0.00  0.00    -0.302 N 
ATOM     38  H   GLN A   3       6.227  -1.969  22.066  0.00  0.00    +0.150 HD
ATOM     39  O   LEU A   2       9.404  -1.802  21.812  0.00  0.00    -0.274 OA
BRANCH  36  40
ATOM     40  CA  LEU A   2       7.787  -0.077  21.183  0.00  0.00    +0.159 C 
BRANCH  40  43
ATOM     41  C   LYS A   1       8.277   1.617  22.930  0.00  0.00    +0.230 C 
ATOM     42  O   LYS A   1       7.123   1.645  23.351  0.00  0.00    -0.274 OA
ATOM     43  N   LEU A   2       8.660   0.921  21.805  0.00  0.00    -0.303 N 
ATOM     44  H   LEU A   2       9.650   0.792  21.633  0.00  0.00    +0.149 HD
BRANCH  41  45
ATOM     45  CA  LYS A   1       9.437   2.323  23.669  0.00  0.00    +0.138 C 
BRANCH  45  46
ATOM     46  N   LYS A   1      10.316   2.973  22.683  0.00  0.00    -0.320 NA
ATOM     47  H1  LYS A   1      11.276   2.656  22.839  0.00  0.00    +0.119 HD
ATOM     48  H2  LYS A   1      10.079   2.601  21.759  0.00  0.00    +0.119 HD
ENDBRANCH  45  46
BRANCH  45  49
ATOM     49  CB  LYS A   1       8.868   3.379  24.638  0.00  0.00    +0.028 C 
BRANCH  49  50
ATOM     50  CG  LYS A   1       8.873   4.773  24.005  0.00  0.00    +0.007 C 
BRANCH  50  51
ATOM     51  CD  LYS A   1       7.483   5.362  23.762  0.00  0.00    +0.051 C 
BRANCH  51  52
ATOM     52  CE  LYS A   1       7.209   5.320  22.262  0.00  0.00    +0.127 C 
BRANCH  52  53
ATOM     53  NZ  LYS A   1       6.229   4.272  21.925  0.00  0.00    +0.219 N 
ATOM     54  HZ1 LYS A   1       5.261   4.598  22.018  0.00  0.00    +0.199 HD
ATOM     55  HZ2 LYS A   1       6.355   4.046  20.914  0.00  0.00    +0.199 HD
ATOM     56  HZ3 LYS A   1       6.353   3.412  22.468  0.00  0.00    +0.199 HD
ENDBRANCH  52  53
ENDBRANCH  51  52
ENDBRANCH  50  51
ENDBRANCH  49  50
ENDBRANCH  45  49
ENDBRANCH  41  45
ENDBRANCH  40  43
BRANCH  40  57
ATOM     57  CB  LEU A   2       7.900  -0.027  19.655  0.00  0.00    +0.034 C 
BRANCH  57  58
ATOM     58  CG  LEU A   2       6.547   0.151  18.933  0.00  0.00    -0.015 C 
ATOM     59  CD2 LEU A   2       5.746   1.332  19.486  0.00  0.00    +0.007 C 
ATOM     60  CD1 LEU A   2       5.720  -1.131  19.050  0.00  0.00    +0.007 C 
ENDBRANCH  57  58
ENDBRANCH  40  57
ENDBRANCH  36  40
ENDBRANCH  35  37
BRANCH  35  61
ATOM     61  CB  GLN A   3       8.024  -3.588  24.069  0.00  0.00    +0.041 C 
BRANCH  61  62
ATOM     62  CG  GLN A   3       8.299  -4.976  24.642  0.00  0.00    +0.098 C 
BRANCH  62  63
ATOM     63  CD  GLN A   3       9.597  -4.971  25.430  0.00  0.00    +0.211 C 
ATOM     64  NE2 GLN A   3       9.439  -4.949  26.783  0.00  0.00    -0.329 N 
ATOM     65 HE21 GLN A   3      10.245  -4.969  27.393  0.00  0.00    +0.145 HD
ATOM     66 HE22 GLN A   3       8.530  -5.051  27.231  0.00  0.00    +0.145 HD
ATOM     67  OE1 GLN A   3      10.715  -4.952  24.908  0.00  0.00    -0.276 OA
ENDBRANCH  62  63
ENDBRANCH  61  62
ENDBRANCH  35  61
ENDBRANCH   1  35
TORSDOF 29
ENDMDL
MODEL 16
REMARK VINA RESULT:      -5.3      2.108      6.471
REMARK  Name = KLQNNE-mmff94.pdb
REMARK  31 active torsions:
REMARK  status: ('A' for Active; 'I' for Inactive)
REMARK    1  A    between atoms: _1  and  _2
REMARK    2  A    between atoms: _2  and  _3
REMARK    3  A    between atoms: _2  and  _5
REMARK    4  A    between atoms: _5  and  _6
REMARK    5  A    between atoms: _6  and  _7
REMARK    6  A    between atoms: _7  and  _8
REMARK    7  A    between atoms: _8  and  _9
REMARK    8  A    between atoms: _23  and  _24
REMARK    9  A    between atoms: _24  and  _25
REMARK   10  A    between atoms: _24  and  _27
REMARK   11  A    between atoms: _27  and  _28
REMARK   12  A    between atoms: _28  and  _29
REMARK   13  A    between atoms: _28  and  _30
REMARK   14  A    between atoms: _42  and  _43
REMARK   15  A    between atoms: _43  and  _44
REMARK   16  A    between atoms: _43  and  _46
REMARK   17  A    between atoms: _46  and  _47
REMARK   18  A    between atoms: _47  and  _48
REMARK   19  A    between atoms: _59  and  _60
REMARK   20  A    between atoms: _60  and  _61
REMARK   21  A    between atoms: _60  and  _63
REMARK   22  A    between atoms: _63  and  _64
REMARK   23  A    between atoms: _73  and  _74
REMARK   24  A    between atoms: _74  and  _75
REMARK   25  A    between atoms: _74  and  _77
REMARK   26  A    between atoms: _77  and  _78
REMARK   27  A    between atoms: _87  and  _88
REMARK   28  A    between atoms: _88  and  _89
REMARK   29  A    between atoms: _88  and  _91
REMARK   30  A    between atoms: _91  and  _92
REMARK   31  A    between atoms: _92  and  _93
REMARK                            x       y       z     vdW  Elec       q    Type
REMARK                         _______ _______ _______ _____ _____    ______ ____
ROOT
ATOM      1  C   GLN A   3       7.325  -0.464  21.404  0.00  0.00    +0.234 C 
ATOM      2  O   GLN A   3       8.378  -0.000  20.970  0.00  0.00    -0.274 OA
ATOM      3  N   ASN A   4       6.651   0.074  22.470  0.00  0.00    -0.302 N 
ATOM      4  H   ASN A   4       5.776  -0.320  22.799  0.00  0.00    +0.150 HD
ENDROOT
BRANCH   3   5
ATOM      5  CA  ASN A   4       7.077   1.322  23.108  0.00  0.00    +0.168 C 
BRANCH   5   6
ATOM      6  C   ASN A   4       6.811   1.153  24.609  0.00  0.00    +0.234 C 
ATOM      7  N   ASN A   5       5.611   0.572  24.925  0.00  0.00    -0.302 N 
ATOM      8  H   ASN A   5       4.972   0.250  24.200  0.00  0.00    +0.150 HD
ATOM      9  O   ASN A   4       7.639   1.486  25.458  0.00  0.00    -0.274 OA
BRANCH   7  10
ATOM     10  CA  ASN A   5       5.175   0.337  26.301  0.00  0.00    +0.168 C 
BRANCH  10  11
ATOM     11  C   ASN A   5       4.668  -1.115  26.354  0.00  0.00    +0.234 C 
ATOM     12  N   GLU A   6       4.492  -1.623  27.613  0.00  0.00    -0.304 N 
ATOM     13  H   GLU A   6       4.730  -1.084  28.440  0.00  0.00    +0.149 HD
ATOM     14  O   ASN A   5       4.402  -1.733  25.323  0.00  0.00    -0.274 OA
BRANCH  12  15
ATOM     15  CA  GLU A   6       4.037  -2.991  27.869  0.00  0.00    +0.136 C 
BRANCH  15  16
ATOM     16  C   GLU A   6       3.084  -2.910  29.058  0.00  0.00    +0.245 C 
ATOM     17  O   GLU A   6       2.226  -3.762  29.298  0.00  0.00    -0.299 OA
ENDBRANCH  15  16
BRANCH  15  18
ATOM     18  CB  GLU A   6       5.210  -3.918  28.177  0.00  0.00    +0.035 C 
BRANCH  18  19
ATOM     19  CG  GLU A   6       4.971  -5.345  27.690  0.00  0.00    +0.054 C 
BRANCH  19  20
ATOM     20  CD  GLU A   6       6.004  -6.357  28.189  0.00  0.00    +0.042 C 
ATOM     21  OE2 GLU A   6       7.196  -5.954  28.103  0.00  0.00    -0.550 OA
ATOM     22  OE1 GLU A   6       5.548  -7.455  28.608  0.00  0.00    -0.550 OA
ENDBRANCH  19  20
ENDBRANCH  18  19
ENDBRANCH  15  18
ENDBRANCH  12  15
ENDBRANCH  10  11
BRANCH  10  23
ATOM     23  CB  ASN A   5       4.044   1.275  26.720  0.00  0.00    +0.127 C 
BRANCH  23  24
ATOM     24  CG  ASN A   5       3.898   2.474  25.811  0.00  0.00    +0.213 C 
ATOM     25  OD1 ASN A   5       3.292   2.447  24.742  0.00  0.00    -0.276 OA
ATOM     26  ND2 ASN A   5       4.453   3.634  26.268  0.00  0.00    -0.329 N 
ATOM     27 HD21 ASN A   5       4.460   4.408  25.618  0.00  0.00    +0.145 HD
ATOM     28 HD22 ASN A   5       5.174   3.639  26.978  0.00  0.00    +0.145 HD
ENDBRANCH  23  24
ENDBRANCH  10  23
ENDBRANCH   7  10
ENDBRANCH   5   6
BRANCH   5  29
ATOM     29  CB  ASN A   4       6.294   2.534  22.607  0.00  0.00    +0.127 C 
BRANCH  29  30
ATOM     30  CG  ASN A   4       7.181   3.744  22.471  0.00  0.00    +0.213 C 
ATOM     31  ND2 ASN A   4       6.577   4.864  21.985  0.00  0.00    -0.329 N 
ATOM     32 HD21 ASN A   4       5.685   4.849  21.509  0.00  0.00    +0.145 HD
ATOM     33 HD22 ASN A   4       7.166   5.675  21.838  0.00  0.00    +0.145 HD
ATOM     34  OD1 ASN A   4       8.362   3.747  22.805  0.00  0.00    -0.276 OA
ENDBRANCH  29  30
ENDBRANCH   5  29
ENDBRANCH   3   5
BRANCH   1  35
ATOM     35  CA  GLN A   3       6.691  -1.724  20.788  0.00  0.00    +0.159 C 
BRANCH  35  37
ATOM     36  C   LEU A   2       5.897  -3.848  21.818  0.00  0.00    +0.234 C 
ATOM     37  N   GLN A   3       6.181  -2.509  21.912  0.00  0.00    -0.302 N 
ATOM     38  H   GLN A   3       6.097  -2.022  22.804  0.00  0.00    +0.150 HD
ATOM     39  O   LEU A   2       5.999  -4.469  20.756  0.00  0.00    -0.274 OA
BRANCH  36  40
ATOM     40  CA  LEU A   2       5.410  -4.515  23.130  0.00  0.00    +0.159 C 
BRANCH  40  43
ATOM     41  C   LYS A   1       7.086  -4.233  24.940  0.00  0.00    +0.230 C 
ATOM     42  O   LYS A   1       7.485  -5.393  24.871  0.00  0.00    -0.274 OA
ATOM     43  N   LEU A   2       6.002  -3.759  24.237  0.00  0.00    -0.303 N 
ATOM     44  H   LEU A   2       5.852  -2.756  24.199  0.00  0.00    +0.149 HD
BRANCH  41  45
ATOM     45  CA  LYS A   1       7.813  -3.164  25.790  0.00  0.00    +0.138 C 
BRANCH  45  46
ATOM     46  N   LYS A   1       8.861  -3.813  26.594  0.00  0.00    -0.320 NA
ATOM     47  H1  LYS A   1       9.592  -3.128  26.795  0.00  0.00    +0.119 HD
ATOM     48  H2  LYS A   1       8.463  -4.027  27.513  0.00  0.00    +0.119 HD
ENDBRANCH  45  46
BRANCH  45  49
ATOM     49  CB  LYS A   1       8.445  -2.107  24.862  0.00  0.00    +0.028 C 
BRANCH  49  50
ATOM     50  CG  LYS A   1       9.424  -2.748  23.876  0.00  0.00    +0.007 C 
BRANCH  50  51
ATOM     51  CD  LYS A   1      10.350  -1.758  23.169  0.00  0.00    +0.051 C 
BRANCH  51  52
ATOM     52  CE  LYS A   1      10.346  -0.457  23.966  0.00  0.00    +0.127 C 
BRANCH  52  53
ATOM     53  NZ  LYS A   1      10.400   0.717  23.076  0.00  0.00    +0.219 N 
ATOM     54  HZ1 LYS A   1      11.361   1.015  22.880  0.00  0.00    +0.199 HD
ATOM     55  HZ2 LYS A   1      10.001   0.425  22.157  0.00  0.00    +0.199 HD
ATOM     56  HZ3 LYS A   1       9.860   1.514  23.426  0.00  0.00    +0.199 HD
ENDBRANCH  52  53
ENDBRANCH  51  52
ENDBRANCH  50  51
ENDBRANCH  49  50
ENDBRANCH  45  49
ENDBRANCH  41  45
ENDBRANCH  40  43
BRANCH  40  57
ATOM     57  CB  LEU A   2       3.880  -4.510  23.220  0.00  0.00    +0.034 C 
BRANCH  57  58
ATOM     58  CG  LEU A   2       3.301  -5.649  24.088  0.00  0.00    -0.015 C 
ATOM     59  CD2 LEU A   2       4.272  -6.823  24.225  0.00  0.00    +0.007 C 
ATOM     60  CD1 LEU A   2       1.980  -6.140  23.491  0.00  0.00    +0.007 C 
ENDBRANCH  57  58
ENDBRANCH  40  57
ENDBRANCH  36  40
ENDBRANCH  35  37
BRANCH  35  61
ATOM     61  CB  GLN A   3       5.553  -1.337  19.833  0.00  0.00    +0.041 C 
BRANCH  61  62
ATOM     62  CG  GLN A   3       6.047  -0.880  18.463  0.00  0.00    +0.098 C 
BRANCH  62  63
ATOM     63  CD  GLN A   3       5.701   0.581  18.240  0.00  0.00    +0.211 C 
ATOM     64  NE2 GLN A   3       4.703   1.056  19.037  0.00  0.00    -0.329 N 
ATOM     65 HE21 GLN A   3       4.418   2.024  18.980  0.00  0.00    +0.145 HD
ATOM     66 HE22 GLN A   3       4.306   0.511  19.801  0.00  0.00    +0.145 HD
ATOM     67  OE1 GLN A   3       6.242   1.292  17.388  0.00  0.00    -0.276 OA
ENDBRANCH  62  63
ENDBRANCH  61  62
ENDBRANCH  35  61
ENDBRANCH   1  35
TORSDOF 29
ENDMDL
MODEL 17
REMARK VINA RESULT:      -5.3      2.084      7.660
REMARK  Name = KLQNNE-mmff94.pdb
REMARK  31 active torsions:
REMARK  status: ('A' for Active; 'I' for Inactive)
REMARK    1  A    between atoms: _1  and  _2
REMARK    2  A    between atoms: _2  and  _3
REMARK    3  A    between atoms: _2  and  _5
REMARK    4  A    between atoms: _5  and  _6
REMARK    5  A    between atoms: _6  and  _7
REMARK    6  A    between atoms: _7  and  _8
REMARK    7  A    between atoms: _8  and  _9
REMARK    8  A    between atoms: _23  and  _24
REMARK    9  A    between atoms: _24  and  _25
REMARK   10  A    between atoms: _24  and  _27
REMARK   11  A    between atoms: _27  and  _28
REMARK   12  A    between atoms: _28  and  _29
REMARK   13  A    between atoms: _28  and  _30
REMARK   14  A    between atoms: _42  and  _43
REMARK   15  A    between atoms: _43  and  _44
REMARK   16  A    between atoms: _43  and  _46
REMARK   17  A    between atoms: _46  and  _47
REMARK   18  A    between atoms: _47  and  _48
REMARK   19  A    between atoms: _59  and  _60
REMARK   20  A    between atoms: _60  and  _61
REMARK   21  A    between atoms: _60  and  _63
REMARK   22  A    between atoms: _63  and  _64
REMARK   23  A    between atoms: _73  and  _74
REMARK   24  A    between atoms: _74  and  _75
REMARK   25  A    between atoms: _74  and  _77
REMARK   26  A    between atoms: _77  and  _78
REMARK   27  A    between atoms: _87  and  _88
REMARK   28  A    between atoms: _88  and  _89
REMARK   29  A    between atoms: _88  and  _91
REMARK   30  A    between atoms: _91  and  _92
REMARK   31  A    between atoms: _92  and  _93
REMARK                            x       y       z     vdW  Elec       q    Type
REMARK                         _______ _______ _______ _____ _____    ______ ____
ROOT
ATOM      1  C   GLN A   3       5.033  -1.639  27.288  0.00  0.00    +0.234 C 
ATOM      2  O   GLN A   3       5.143  -0.890  28.258  0.00  0.00    -0.274 OA
ATOM      3  N   ASN A   4       5.594  -1.370  26.066  0.00  0.00    -0.302 N 
ATOM      4  H   ASN A   4       5.500  -2.012  25.286  0.00  0.00    +0.150 HD
ENDROOT
BRANCH   3   5
ATOM      5  CA  ASN A   4       6.470  -0.217  25.850  0.00  0.00    +0.168 C 
BRANCH   5   6
ATOM      6  C   ASN A   4       5.680   0.771  24.982  0.00  0.00    +0.234 C 
ATOM      7  N   ASN A   5       6.397   1.364  23.977  0.00  0.00    -0.302 N 
ATOM      8  H   ASN A   5       7.374   1.126  23.812  0.00  0.00    +0.150 HD
ATOM      9  O   ASN A   4       4.479   0.978  25.162  0.00  0.00    -0.274 OA
BRANCH   7  10
ATOM     10  CA  ASN A   5       5.820   2.340  23.053  0.00  0.00    +0.168 C 
BRANCH  10  11
ATOM     11  C   ASN A   5       6.567   2.167  21.718  0.00  0.00    +0.234 C 
ATOM     12  N   GLU A   6       6.282   1.012  21.040  0.00  0.00    -0.304 N 
ATOM     13  H   GLU A   6       5.660   0.310  21.427  0.00  0.00    +0.149 HD
ATOM     14  O   ASN A   5       7.321   3.042  21.293  0.00  0.00    -0.274 OA
BRANCH  12  15
ATOM     15  CA  GLU A   6       6.908   0.658  19.763  0.00  0.00    +0.136 C 
BRANCH  15  16
ATOM     16  C   GLU A   6       5.866  -0.140  18.984  0.00  0.00    +0.245 C 
ATOM     17  O   GLU A   6       5.865  -0.234  17.755  0.00  0.00    -0.299 OA
ENDBRANCH  15  16
BRANCH  15  18
ATOM     18  CB  GLU A   6       8.174  -0.167  19.976  0.00  0.00    +0.035 C 
BRANCH  18  19
ATOM     19  CG  GLU A   6       8.295  -0.693  21.404  0.00  0.00    +0.054 C 
BRANCH  19  20
ATOM     20  CD  GLU A   6       9.703  -0.582  21.993  0.00  0.00    +0.042 C 
ATOM     21  OE2 GLU A   6       9.989   0.570  22.418  0.00  0.00    -0.550 OA
ATOM     22  OE1 GLU A   6      10.397  -1.635  21.975  0.00  0.00    -0.550 OA
ENDBRANCH  19  20
ENDBRANCH  18  19
ENDBRANCH  15  18
ENDBRANCH  12  15
ENDBRANCH  10  11
BRANCH  10  23
ATOM     23  CB  ASN A   5       5.998   3.777  23.541  0.00  0.00    +0.127 C 
BRANCH  23  24
ATOM     24  CG  ASN A   5       7.202   3.956  24.437  0.00  0.00    +0.213 C 
ATOM     25  OD1 ASN A   5       7.192   3.717  25.643  0.00  0.00    -0.276 OA
ATOM     26  ND2 ASN A   5       8.346   4.369  23.818  0.00  0.00    -0.329 N 
ATOM     27 HD21 ASN A   5       9.120   4.601  24.425  0.00  0.00    +0.145 HD
ATOM     28 HD22 ASN A   5       8.330   4.829  22.917  0.00  0.00    +0.145 HD
ENDBRANCH  23  24
ENDBRANCH  10  23
ENDBRANCH   7  10
ENDBRANCH   5   6
BRANCH   5  29
ATOM     29  CB  ASN A   4       7.758  -0.587  25.118  0.00  0.00    +0.127 C 
BRANCH  29  30
ATOM     30  CG  ASN A   4       8.961  -0.442  26.013  0.00  0.00    +0.213 C 
ATOM     31  ND2 ASN A   4      10.005   0.258  25.488  0.00  0.00    -0.329 N 
ATOM     32 HD21 ASN A   4      10.098   0.454  24.500  0.00  0.00    +0.145 HD
ATOM     33 HD22 ASN A   4      10.843   0.325  26.053  0.00  0.00    +0.145 HD
ATOM     34  OD1 ASN A   4       9.001  -0.888  27.156  0.00  0.00    -0.276 OA
ENDBRANCH  29  30
ENDBRANCH   5  29
ENDBRANCH   3   5
BRANCH   1  35
ATOM     35  CA  GLN A   3       4.219  -2.942  27.371  0.00  0.00    +0.159 C 
BRANCH  35  37
ATOM     36  C   LEU A   2       3.078  -3.723  25.299  0.00  0.00    +0.234 C 
ATOM     37  N   GLN A   3       4.224  -3.507  26.021  0.00  0.00    -0.302 N 
ATOM     38  H   GLN A   3       5.139  -3.685  25.609  0.00  0.00    +0.150 HD
ATOM     39  O   LEU A   2       1.956  -3.508  25.766  0.00  0.00    -0.274 OA
BRANCH  36  40
ATOM     40  CA  LEU A   2       3.293  -4.286  23.870  0.00  0.00    +0.159 C 
BRANCH  40  43
ATOM     41  C   LYS A   1       5.480  -4.780  22.805  0.00  0.00    +0.230 C 
ATOM     42  O   LYS A   1       5.153  -4.317  21.714  0.00  0.00    -0.274 OA
ATOM     43  N   LEU A   2       4.608  -4.930  23.860  0.00  0.00    -0.303 N 
ATOM     44  H   LEU A   2       4.992  -5.138  24.776  0.00  0.00    +0.149 HD
BRANCH  41  45
ATOM     45  CA  LYS A   1       6.939  -5.188  23.119  0.00  0.00    +0.138 C 
BRANCH  45  46
ATOM     46  N   LYS A   1       7.378  -6.204  22.149  0.00  0.00    -0.320 NA
ATOM     47  H1  LYS A   1       7.658  -5.735  21.286  0.00  0.00    +0.119 HD
ATOM     48  H2  LYS A   1       8.247  -6.617  22.500  0.00  0.00    +0.119 HD
ENDBRANCH  45  46
BRANCH  45  49
ATOM     49  CB  LYS A   1       7.854  -3.950  23.029  0.00  0.00    +0.028 C 
BRANCH  49  50
ATOM     50  CG  LYS A   1       8.770  -3.846  24.250  0.00  0.00    +0.007 C 
BRANCH  50  51
ATOM     51  CD  LYS A   1       8.080  -4.130  25.585  0.00  0.00    +0.051 C 
BRANCH  51  52
ATOM     52  CE  LYS A   1       9.031  -4.960  26.440  0.00  0.00    +0.127 C 
BRANCH  52  53
ATOM     53  NZ  LYS A   1      10.132  -5.515  25.633  0.00  0.00    +0.219 N 
ATOM     54  HZ1 LYS A   1       9.805  -5.908  24.744  0.00  0.00    +0.199 HD
ATOM     55  HZ2 LYS A   1      10.758  -4.720  25.378  0.00  0.00    +0.199 HD
ATOM     56  HZ3 LYS A   1      10.686  -6.217  26.133  0.00  0.00    +0.199 HD
ENDBRANCH  52  53
ENDBRANCH  51  52
ENDBRANCH  50  51
ENDBRANCH  49  50
ENDBRANCH  45  49
ENDBRANCH  41  45
ENDBRANCH  40  43
BRANCH  40  57
ATOM     57  CB  LEU A   2       2.191  -5.284  23.496  0.00  0.00    +0.034 C 
BRANCH  57  58
ATOM     58  CG  LEU A   2       2.515  -6.744  23.877  0.00  0.00    -0.015 C 
ATOM     59  CD2 LEU A   2       1.794  -7.751  22.978  0.00  0.00    +0.007 C 
ATOM     60  CD1 LEU A   2       2.139  -6.998  25.339  0.00  0.00    +0.007 C 
ENDBRANCH  57  58
ENDBRANCH  40  57
ENDBRANCH  36  40
ENDBRANCH  35  37
BRANCH  35  61
ATOM     61  CB  GLN A   3       4.864  -3.913  28.370  0.00  0.00    +0.041 C 
BRANCH  61  62
ATOM     62  CG  GLN A   3       4.403  -5.357  28.187  0.00  0.00    +0.098 C 
BRANCH  62  63
ATOM     63  CD  GLN A   3       5.522  -6.194  27.594  0.00  0.00    +0.211 C 
ATOM     64  NE2 GLN A   3       6.501  -6.540  28.475  0.00  0.00    -0.329 N 
ATOM     65 HE21 GLN A   3       7.277  -7.117  28.180  0.00  0.00    +0.145 HD
ATOM     66 HE22 GLN A   3       6.429  -6.356  29.475  0.00  0.00    +0.145 HD
ATOM     67  OE1 GLN A   3       5.579  -6.517  26.404  0.00  0.00    -0.276 OA
ENDBRANCH  62  63
ENDBRANCH  61  62
ENDBRANCH  35  61
ENDBRANCH   1  35
TORSDOF 29
ENDMDL
MODEL 18
REMARK VINA RESULT:      -5.2      1.893      6.862
REMARK  Name = KLQNNE-mmff94.pdb
REMARK  31 active torsions:
REMARK  status: ('A' for Active; 'I' for Inactive)
REMARK    1  A    between atoms: _1  and  _2
REMARK    2  A    between atoms: _2  and  _3
REMARK    3  A    between atoms: _2  and  _5
REMARK    4  A    between atoms: _5  and  _6
REMARK    5  A    between atoms: _6  and  _7
REMARK    6  A    between atoms: _7  and  _8
REMARK    7  A    between atoms: _8  and  _9
REMARK    8  A    between atoms: _23  and  _24
REMARK    9  A    between atoms: _24  and  _25
REMARK   10  A    between atoms: _24  and  _27
REMARK   11  A    between atoms: _27  and  _28
REMARK   12  A    between atoms: _28  and  _29
REMARK   13  A    between atoms: _28  and  _30
REMARK   14  A    between atoms: _42  and  _43
REMARK   15  A    between atoms: _43  and  _44
REMARK   16  A    between atoms: _43  and  _46
REMARK   17  A    between atoms: _46  and  _47
REMARK   18  A    between atoms: _47  and  _48
REMARK   19  A    between atoms: _59  and  _60
REMARK   20  A    between atoms: _60  and  _61
REMARK   21  A    between atoms: _60  and  _63
REMARK   22  A    between atoms: _63  and  _64
REMARK   23  A    between atoms: _73  and  _74
REMARK   24  A    between atoms: _74  and  _75
REMARK   25  A    between atoms: _74  and  _77
REMARK   26  A    between atoms: _77  and  _78
REMARK   27  A    between atoms: _87  and  _88
REMARK   28  A    between atoms: _88  and  _89
REMARK   29  A    between atoms: _88  and  _91
REMARK   30  A    between atoms: _91  and  _92
REMARK   31  A    between atoms: _92  and  _93
REMARK                            x       y       z     vdW  Elec       q    Type
REMARK                         _______ _______ _______ _____ _____    ______ ____
ROOT
ATOM      1  C   GLN A   3       8.533  -1.004  23.727  0.00  0.00    +0.234 C 
ATOM      2  O   GLN A   3       9.218  -1.594  24.560  0.00  0.00    -0.274 OA
ATOM      3  N   ASN A   4       8.334   0.353  23.745  0.00  0.00    -0.302 N 
ATOM      4  H   ASN A   4       7.776   0.817  23.036  0.00  0.00    +0.150 HD
ENDROOT
BRANCH   3   5
ATOM      5  CA  ASN A   4       9.021   1.226  24.700  0.00  0.00    +0.168 C 
BRANCH   5   6
ATOM      6  C   ASN A   4       8.179   2.504  24.800  0.00  0.00    +0.234 C 
ATOM      7  N   ASN A   5       6.870   2.370  24.417  0.00  0.00    -0.302 N 
ATOM      8  H   ASN A   5       6.494   1.469  24.125  0.00  0.00    +0.150 HD
ATOM      9  O   ASN A   4       8.647   3.559  25.229  0.00  0.00    -0.274 OA
BRANCH   7  10
ATOM     10  CA  ASN A   5       5.915   3.477  24.433  0.00  0.00    +0.168 C 
BRANCH  10  11
ATOM     11  C   ASN A   5       4.611   2.917  25.029  0.00  0.00    +0.234 C 
ATOM     12  N   GLU A   6       4.606   2.787  26.392  0.00  0.00    -0.304 N 
ATOM     13  H   GLU A   6       5.427   3.002  26.949  0.00  0.00    +0.149 HD
ATOM     14  O   ASN A   5       3.643   2.661  24.313  0.00  0.00    -0.274 OA
BRANCH  12  15
ATOM     15  CA  GLU A   6       3.465   2.253  27.141  0.00  0.00    +0.136 C 
BRANCH  15  16
ATOM     16  C   GLU A   6       3.852   2.321  28.615  0.00  0.00    +0.245 C 
ATOM     17  O   GLU A   6       3.040   2.205  29.535  0.00  0.00    -0.299 OA
ENDBRANCH  15  16
BRANCH  15  18
ATOM     18  CB  GLU A   6       3.155   0.816  26.729  0.00  0.00    +0.035 C 
BRANCH  18  19
ATOM     19  CG  GLU A   6       4.220  -0.170  27.202  0.00  0.00    +0.054 C 
BRANCH  19  20
ATOM     20  CD  GLU A   6       5.228  -0.567  26.122  0.00  0.00    +0.042 C 
ATOM     21  OE2 GLU A   6       6.337   0.026  26.216  0.00  0.00    -0.550 OA
ATOM     22  OE1 GLU A   6       4.832  -1.417  25.279  0.00  0.00    -0.550 OA
ENDBRANCH  19  20
ENDBRANCH  18  19
ENDBRANCH  15  18
ENDBRANCH  12  15
ENDBRANCH  10  11
BRANCH  10  23
ATOM     23  CB  ASN A   5       5.631   4.019  23.033  0.00  0.00    +0.127 C 
BRANCH  23  24
ATOM     24  CG  ASN A   5       5.958   3.032  21.936  0.00  0.00    +0.213 C 
ATOM     25  OD1 ASN A   5       7.105   2.699  21.642  0.00  0.00    -0.276 OA
ATOM     26  ND2 ASN A   5       4.886   2.480  21.296  0.00  0.00    -0.329 N 
ATOM     27 HD21 ASN A   5       5.097   1.910  20.489  0.00  0.00    +0.145 HD
ATOM     28 HD22 ASN A   5       3.973   2.915  21.311  0.00  0.00    +0.145 HD
ENDBRANCH  23  24
ENDBRANCH  10  23
ENDBRANCH   7  10
ENDBRANCH   5   6
BRANCH   5  29
ATOM     29  CB  ASN A   4      10.428   1.603  24.242  0.00  0.00    +0.127 C 
BRANCH  29  30
ATOM     30  CG  ASN A   4      10.413   2.208  22.862  0.00  0.00    +0.213 C 
ATOM     31  ND2 ASN A   4      10.743   3.528  22.794  0.00  0.00    -0.329 N 
ATOM     32 HD21 ASN A   4      10.751   4.138  23.601  0.00  0.00    +0.145 HD
ATOM     33 HD22 ASN A   4      10.691   3.968  21.883  0.00  0.00    +0.145 HD
ATOM     34  OD1 ASN A   4      10.158   1.560  21.851  0.00  0.00    -0.276 OA
ENDBRANCH  29  30
ENDBRANCH   5  29
ENDBRANCH   3   5
BRANCH   1  35
ATOM     35  CA  GLN A   3       7.813  -1.764  22.599  0.00  0.00    +0.159 C 
BRANCH  35  37
ATOM     36  C   LEU A   2       6.527  -3.894  22.726  0.00  0.00    +0.234 C 
ATOM     37  N   GLN A   3       6.886  -2.682  23.261  0.00  0.00    -0.302 N 
ATOM     38  H   GLN A   3       6.554  -2.404  24.184  0.00  0.00    +0.150 HD
ATOM     39  O   LEU A   2       6.921  -4.264  21.616  0.00  0.00    -0.274 OA
BRANCH  36  40
ATOM     40  CA  LEU A   2       5.571  -4.746  23.599  0.00  0.00    +0.159 C 
BRANCH  40  43
ATOM     41  C   LYS A   1       6.319  -4.927  25.960  0.00  0.00    +0.230 C 
ATOM     42  O   LYS A   1       6.647  -6.106  25.857  0.00  0.00    -0.274 OA
ATOM     43  N   LEU A   2       5.669  -4.229  24.966  0.00  0.00    -0.303 N 
ATOM     44  H   LEU A   2       5.604  -3.220  25.049  0.00  0.00    +0.149 HD
BRANCH  41  45
ATOM     45  CA  LYS A   1       6.666  -4.083  27.209  0.00  0.00    +0.138 C 
BRANCH  45  46
ATOM     46  N   LYS A   1       7.324  -2.836  26.786  0.00  0.00    -0.320 NA
ATOM     47  H1  LYS A   1       8.334  -2.945  26.895  0.00  0.00    +0.119 HD
ATOM     48  H2  LYS A   1       7.193  -2.741  25.775  0.00  0.00    +0.119 HD
ENDBRANCH  45  46
BRANCH  45  49
ATOM     49  CB  LYS A   1       5.376  -3.755  27.987  0.00  0.00    +0.028 C 
BRANCH  49  50
ATOM     50  CG  LYS A   1       5.026  -4.868  28.977  0.00  0.00    +0.007 C 
BRANCH  50  51
ATOM     51  CD  LYS A   1       3.682  -5.550  28.714  0.00  0.00    +0.051 C 
BRANCH  51  52
ATOM     52  CE  LYS A   1       3.958  -6.902  28.067  0.00  0.00    +0.127 C 
BRANCH  52  53
ATOM     53  NZ  LYS A   1       5.300  -7.401  28.417  0.00  0.00    +0.219 N 
ATOM     54  HZ1 LYS A   1       5.486  -8.330  28.024  0.00  0.00    +0.199 HD
ATOM     55  HZ2 LYS A   1       5.992  -6.761  27.969  0.00  0.00    +0.199 HD
ATOM     56  HZ3 LYS A   1       5.476  -7.414  29.426  0.00  0.00    +0.199 HD
ENDBRANCH  52  53
ENDBRANCH  51  52
ENDBRANCH  50  51
ENDBRANCH  49  50
ENDBRANCH  45  49
ENDBRANCH  41  45
ENDBRANCH  40  43
BRANCH  40  57
ATOM     57  CB  LEU A   2       4.129  -4.663  23.085  0.00  0.00    +0.034 C 
BRANCH  57  58
ATOM     58  CG  LEU A   2       3.107  -5.415  23.965  0.00  0.00    -0.015 C 
ATOM     59  CD2 LEU A   2       3.489  -6.883  24.170  0.00  0.00    +0.007 C 
ATOM     60  CD1 LEU A   2       1.714  -5.327  23.338  0.00  0.00    +0.007 C 
ENDBRANCH  57  58
ENDBRANCH  40  57
ENDBRANCH  36  40
ENDBRANCH  35  37
BRANCH  35  61
ATOM     61  CB  GLN A   3       7.053  -0.784  21.693  0.00  0.00    +0.041 C 
BRANCH  61  62
ATOM     62  CG  GLN A   3       7.785  -0.482  20.388  0.00  0.00    +0.098 C 
BRANCH  62  63
ATOM     63  CD  GLN A   3       6.789  -0.142  19.294  0.00  0.00    +0.211 C 
ATOM     64  NE2 GLN A   3       5.532  -0.626  19.500  0.00  0.00    -0.329 N 
ATOM     65 HE21 GLN A   3       4.793  -0.431  18.839  0.00  0.00    +0.145 HD
ATOM     66 HE22 GLN A   3       5.254  -1.074  20.372  0.00  0.00    +0.145 HD
ATOM     67  OE1 GLN A   3       7.080   0.490  18.274  0.00  0.00    -0.276 OA
ENDBRANCH  62  63
ENDBRANCH  61  62
ENDBRANCH  35  61
ENDBRANCH   1  35
TORSDOF 29
ENDMDL
MODEL 19
REMARK VINA RESULT:      -5.2      2.007      5.877
REMARK  Name = KLQNNE-mmff94.pdb
REMARK  31 active torsions:
REMARK  status: ('A' for Active; 'I' for Inactive)
REMARK    1  A    between atoms: _1  and  _2
REMARK    2  A    between atoms: _2  and  _3
REMARK    3  A    between atoms: _2  and  _5
REMARK    4  A    between atoms: _5  and  _6
REMARK    5  A    between atoms: _6  and  _7
REMARK    6  A    between atoms: _7  and  _8
REMARK    7  A    between atoms: _8  and  _9
REMARK    8  A    between atoms: _23  and  _24
REMARK    9  A    between atoms: _24  and  _25
REMARK   10  A    between atoms: _24  and  _27
REMARK   11  A    between atoms: _27  and  _28
REMARK   12  A    between atoms: _28  and  _29
REMARK   13  A    between atoms: _28  and  _30
REMARK   14  A    between atoms: _42  and  _43
REMARK   15  A    between atoms: _43  and  _44
REMARK   16  A    between atoms: _43  and  _46
REMARK   17  A    between atoms: _46  and  _47
REMARK   18  A    between atoms: _47  and  _48
REMARK   19  A    between atoms: _59  and  _60
REMARK   20  A    between atoms: _60  and  _61
REMARK   21  A    between atoms: _60  and  _63
REMARK   22  A    between atoms: _63  and  _64
REMARK   23  A    between atoms: _73  and  _74
REMARK   24  A    between atoms: _74  and  _75
REMARK   25  A    between atoms: _74  and  _77
REMARK   26  A    between atoms: _77  and  _78
REMARK   27  A    between atoms: _87  and  _88
REMARK   28  A    between atoms: _88  and  _89
REMARK   29  A    between atoms: _88  and  _91
REMARK   30  A    between atoms: _91  and  _92
REMARK   31  A    between atoms: _92  and  _93
REMARK                            x       y       z     vdW  Elec       q    Type
REMARK                         _______ _______ _______ _____ _____    ______ ____
ROOT
ATOM      1  C   GLN A   3       7.662   0.252  26.224  0.00  0.00    +0.234 C 
ATOM      2  O   GLN A   3       8.606  -0.468  25.904  0.00  0.00    -0.274 OA
ATOM      3  N   ASN A   4       6.437  -0.239  26.597  0.00  0.00    -0.302 N 
ATOM      4  H   ASN A   4       5.679   0.377  26.871  0.00  0.00    +0.150 HD
ENDROOT
BRANCH   3   5
ATOM      5  CA  ASN A   4       6.190  -1.674  26.754  0.00  0.00    +0.168 C 
BRANCH   5   6
ATOM      6  C   ASN A   4       5.903  -2.220  25.349  0.00  0.00    +0.234 C 
ATOM      7  N   ASN A   5       6.942  -2.895  24.765  0.00  0.00    -0.302 N 
ATOM      8  H   ASN A   5       7.820  -3.046  25.259  0.00  0.00    +0.150 HD
ATOM      9  O   ASN A   4       4.804  -2.085  24.811  0.00  0.00    -0.274 OA
BRANCH   7  10
ATOM     10  CA  ASN A   5       6.863  -3.479  23.426  0.00  0.00    +0.168 C 
BRANCH  10  11
ATOM     11  C   ASN A   5       6.509  -4.964  23.620  0.00  0.00    +0.234 C 
ATOM     12  N   GLU A   6       5.345  -5.198  24.302  0.00  0.00    -0.304 N 
ATOM     13  H   GLU A   6       4.794  -4.437  24.688  0.00  0.00    +0.149 HD
ATOM     14  O   ASN A   5       7.213  -5.853  23.142  0.00  0.00    -0.274 OA
BRANCH  12  15
ATOM     15  CA  GLU A   6       4.851  -6.543  24.605  0.00  0.00    +0.136 C 
BRANCH  15  16
ATOM     16  C   GLU A   6       3.454  -6.632  23.996  0.00  0.00    +0.245 C 
ATOM     17  O   GLU A   6       2.698  -5.664  23.891  0.00  0.00    -0.299 OA
ENDBRANCH  15  16
BRANCH  15  18
ATOM     18  CB  GLU A   6       4.802  -6.792  26.110  0.00  0.00    +0.035 C 
BRANCH  18  19
ATOM     19  CG  GLU A   6       5.103  -5.532  26.919  0.00  0.00    +0.054 C 
BRANCH  19  20
ATOM     20  CD  GLU A   6       6.502  -5.506  27.537  0.00  0.00    +0.042 C 
ATOM     21  OE2 GLU A   6       6.503  -5.369  28.790  0.00  0.00    -0.550 OA
ATOM     22  OE1 GLU A   6       7.467  -5.613  26.732  0.00  0.00    -0.550 OA
ENDBRANCH  19  20
ENDBRANCH  18  19
ENDBRANCH  15  18
ENDBRANCH  12  15
ENDBRANCH  10  11
BRANCH  10  23
ATOM     23  CB  ASN A   5       8.187  -3.377  22.670  0.00  0.00    +0.127 C 
BRANCH  23  24
ATOM     24  CG  ASN A   5       9.339  -2.940  23.544  0.00  0.00    +0.213 C 
ATOM     25  OD1 ASN A   5       9.864  -3.664  24.388  0.00  0.00    -0.276 OA
ATOM     26  ND2 ASN A   5       9.811  -1.680  23.317  0.00  0.00    -0.329 N 
ATOM     27 HD21 ASN A   5      10.502  -1.340  23.972  0.00  0.00    +0.145 HD
ATOM     28 HD22 ASN A   5       9.255  -0.976  22.849  0.00  0.00    +0.145 HD
ENDBRANCH  23  24
ENDBRANCH  10  23
ENDBRANCH   7  10
ENDBRANCH   5   6
BRANCH   5  29
ATOM     29  CB  ASN A   4       4.986  -1.968  27.646  0.00  0.00    +0.127 C 
BRANCH  29  30
ATOM     30  CG  ASN A   4       4.181  -0.723  27.911  0.00  0.00    +0.213 C 
ATOM     31  ND2 ASN A   4       3.046  -0.587  27.169  0.00  0.00    -0.329 N 
ATOM     32 HD21 ASN A   4       2.867  -1.124  26.330  0.00  0.00    +0.145 HD
ATOM     33 HD22 ASN A   4       2.515   0.267  27.294  0.00  0.00    +0.145 HD
ATOM     34  OD1 ASN A   4       4.493   0.107  28.759  0.00  0.00    -0.276 OA
ENDBRANCH  29  30
ENDBRANCH   5  29
ENDBRANCH   3   5
BRANCH   1  35
ATOM     35  CA  GLN A   3       7.781   1.786  26.201  0.00  0.00    +0.159 C 
BRANCH  35  37
ATOM     36  C   LEU A   2       8.560   2.378  23.910  0.00  0.00    +0.234 C 
ATOM     37  N   GLN A   3       7.546   2.187  24.814  0.00  0.00    -0.302 N 
ATOM     38  H   GLN A   3       6.571   2.266  24.525  0.00  0.00    +0.150 HD
ATOM     39  O   LEU A   2       9.749   2.280  24.227  0.00  0.00    -0.274 OA
BRANCH  36  40
ATOM     40  CA  LEU A   2       8.107   2.756  22.477  0.00  0.00    +0.159 C 
BRANCH  40  43
ATOM     41  C   LYS A   1       7.407   0.458  21.849  0.00  0.00    +0.230 C 
ATOM     42  O   LYS A   1       6.695   0.310  22.839  0.00  0.00    -0.274 OA
ATOM     43  N   LEU A   2       8.229   1.547  21.659  0.00  0.00    -0.303 N 
ATOM     44  H   LEU A   2       8.636   1.689  20.741  0.00  0.00    +0.149 HD
BRANCH  41  45
ATOM     45  CA  LYS A   1       7.404  -0.550  20.676  0.00  0.00    +0.138 C 
BRANCH  45  46
ATOM     46  N   LYS A   1       6.135  -1.296  20.682  0.00  0.00    -0.320 NA
ATOM     47  H1  LYS A   1       5.932  -1.607  19.730  0.00  0.00    +0.119 HD
ATOM     48  H2  LYS A   1       6.286  -2.167  21.200  0.00  0.00    +0.119 HD
ENDBRANCH  45  46
BRANCH  45  49
ATOM     49  CB  LYS A   1       7.559   0.206  19.342  0.00  0.00    +0.028 C 
BRANCH  49  50
ATOM     50  CG  LYS A   1       6.371  -0.056  18.414  0.00  0.00    +0.007 C 
BRANCH  50  51
ATOM     51  CD  LYS A   1       5.575   1.194  18.035  0.00  0.00    +0.051 C 
BRANCH  51  52
ATOM     52  CE  LYS A   1       4.828   1.671  19.276  0.00  0.00    +0.127 C 
BRANCH  52  53
ATOM     53  NZ  LYS A   1       3.608   2.414  18.915  0.00  0.00    +0.219 N 
ATOM     54  HZ1 LYS A   1       2.769   1.824  18.937  0.00  0.00    +0.199 HD
ATOM     55  HZ2 LYS A   1       3.462   3.141  19.649  0.00  0.00    +0.199 HD
ATOM     56  HZ3 LYS A   1       3.673   2.881  18.005  0.00  0.00    +0.199 HD
ENDBRANCH  52  53
ENDBRANCH  51  52
ENDBRANCH  50  51
ENDBRANCH  49  50
ENDBRANCH  45  49
ENDBRANCH  41  45
ENDBRANCH  40  43
BRANCH  40  57
ATOM     57  CB  LEU A   2       6.666   3.279  22.471  0.00  0.00    +0.034 C 
BRANCH  57  58
ATOM     58  CG  LEU A   2       6.527   4.738  22.957  0.00  0.00    -0.015 C 
ATOM     59  CD2 LEU A   2       5.065   5.166  23.094  0.00  0.00    +0.007 C 
ATOM     60  CD1 LEU A   2       7.253   5.680  21.995  0.00  0.00    +0.007 C 
ENDBRANCH  57  58
ENDBRANCH  40  57
ENDBRANCH  36  40
ENDBRANCH  35  37
BRANCH  35  61
ATOM     61  CB  GLN A   3       6.739   2.418  27.135  0.00  0.00    +0.041 C 
BRANCH  61  62
ATOM     62  CG  GLN A   3       5.751   3.325  26.406  0.00  0.00    +0.098 C 
BRANCH  62  63
ATOM     63  CD  GLN A   3       4.468   2.572  26.108  0.00  0.00    +0.211 C 
ATOM     64  NE2 GLN A   3       3.386   2.988  26.824  0.00  0.00    -0.329 N 
ATOM     65 HE21 GLN A   3       2.480   2.563  26.679  0.00  0.00    +0.145 HD
ATOM     66 HE22 GLN A   3       3.408   3.814  27.420  0.00  0.00    +0.145 HD
ATOM     67  OE1 GLN A   3       4.394   1.632  25.312  0.00  0.00    -0.276 OA
ENDBRANCH  62  63
ENDBRANCH  61  62
ENDBRANCH  35  61
ENDBRANCH   1  35
TORSDOF 29
ENDMDL
MODEL 20
REMARK VINA RESULT:      -5.2      1.958      7.475
REMARK  Name = KLQNNE-mmff94.pdb
REMARK  31 active torsions:
REMARK  status: ('A' for Active; 'I' for Inactive)
REMARK    1  A    between atoms: _1  and  _2
REMARK    2  A    between atoms: _2  and  _3
REMARK    3  A    between atoms: _2  and  _5
REMARK    4  A    between atoms: _5  and  _6
REMARK    5  A    between atoms: _6  and  _7
REMARK    6  A    between atoms: _7  and  _8
REMARK    7  A    between atoms: _8  and  _9
REMARK    8  A    between atoms: _23  and  _24
REMARK    9  A    between atoms: _24  and  _25
REMARK   10  A    between atoms: _24  and  _27
REMARK   11  A    between atoms: _27  and  _28
REMARK   12  A    between atoms: _28  and  _29
REMARK   13  A    between atoms: _28  and  _30
REMARK   14  A    between atoms: _42  and  _43
REMARK   15  A    between atoms: _43  and  _44
REMARK   16  A    between atoms: _43  and  _46
REMARK   17  A    between atoms: _46  and  _47
REMARK   18  A    between atoms: _47  and  _48
REMARK   19  A    between atoms: _59  and  _60
REMARK   20  A    between atoms: _60  and  _61
REMARK   21  A    between atoms: _60  and  _63
REMARK   22  A    between atoms: _63  and  _64
REMARK   23  A    between atoms: _73  and  _74
REMARK   24  A    between atoms: _74  and  _75
REMARK   25  A    between atoms: _74  and  _77
REMARK   26  A    between atoms: _77  and  _78
REMARK   27  A    between atoms: _87  and  _88
REMARK   28  A    between atoms: _88  and  _89
REMARK   29  A    between atoms: _88  and  _91
REMARK   30  A    between atoms: _91  and  _92
REMARK   31  A    between atoms: _92  and  _93
REMARK                            x       y       z     vdW  Elec       q    Type
REMARK                         _______ _______ _______ _____ _____    ______ ____
ROOT
ATOM      1  C   GLN A   3       8.730  -2.941  24.448  0.00  0.00    +0.234 C 
ATOM      2  O   GLN A   3       9.831  -3.247  23.993  0.00  0.00    -0.274 OA
ATOM      3  N   ASN A   4       7.672  -2.565  23.660  0.00  0.00    -0.302 N 
ATOM      4  H   ASN A   4       6.769  -2.331  24.061  0.00  0.00    +0.150 HD
ENDROOT
BRANCH   3   5
ATOM      5  CA  ASN A   4       7.737  -2.609  22.198  0.00  0.00    +0.168 C 
BRANCH   5   6
ATOM      6  C   ASN A   4       8.166  -1.209  21.741  0.00  0.00    +0.234 C 
ATOM      7  N   ASN A   5       7.140  -0.367  21.405  0.00  0.00    -0.302 N 
ATOM      8  H   ASN A   5       6.167  -0.657  21.494  0.00  0.00    +0.150 HD
ATOM      9  O   ASN A   4       9.349  -0.868  21.717  0.00  0.00    -0.274 OA
BRANCH   7  10
ATOM     10  CA  ASN A   5       7.350   1.002  20.937  0.00  0.00    +0.168 C 
BRANCH  10  11
ATOM     11  C   ASN A   5       7.175   1.912  22.166  0.00  0.00    +0.234 C 
ATOM     12  N   GLU A   6       8.069   2.945  22.255  0.00  0.00    -0.304 N 
ATOM     13  H   GLU A   6       8.817   3.059  21.578  0.00  0.00    +0.149 HD
ATOM     14  O   ASN A   5       6.258   1.730  22.967  0.00  0.00    -0.274 OA
BRANCH  12  15
ATOM     15  CA  GLU A   6       8.077   3.905  23.361  0.00  0.00    +0.136 C 
BRANCH  15  16
ATOM     16  C   GLU A   6       8.094   5.292  22.724  0.00  0.00    +0.245 C 
ATOM     17  O   GLU A   6       7.303   5.644  21.846  0.00  0.00    -0.299 OA
ENDBRANCH  15  16
BRANCH  15  18
ATOM     18  CB  GLU A   6       9.296   3.707  24.259  0.00  0.00    +0.035 C 
BRANCH  18  19
ATOM     19  CG  GLU A   6      10.286   2.698  23.684  0.00  0.00    +0.054 C 
BRANCH  19  20
ATOM     20  CD  GLU A   6      10.261   1.333  24.375  0.00  0.00    +0.042 C 
ATOM     21  OE2 GLU A   6      11.404   0.834  24.561  0.00  0.00    -0.550 OA
ATOM     22  OE1 GLU A   6       9.120   0.877  24.662  0.00  0.00    -0.550 OA
ENDBRANCH  19  20
ENDBRANCH  18  19
ENDBRANCH  15  18
ENDBRANCH  12  15
ENDBRANCH  10  11
BRANCH  10  23
ATOM     23  CB  ASN A   5       6.340   1.411  19.867  0.00  0.00    +0.127 C 
BRANCH  23  24
ATOM     24  CG  ASN A   5       6.424   0.567  18.616  0.00  0.00    +0.213 C 
ATOM     25  OD1 ASN A   5       7.465   0.053  18.212  0.00  0.00    -0.276 OA
ATOM     26  ND2 ASN A   5       5.245   0.362  17.959  0.00  0.00    -0.329 N 
ATOM     27 HD21 ASN A   5       5.312  -0.103  17.063  0.00  0.00    +0.145 HD
ATOM     28 HD22 ASN A   5       4.447   0.970  18.089  0.00  0.00    +0.145 HD
ENDBRANCH  23  24
ENDBRANCH  10  23
ENDBRANCH   7  10
ENDBRANCH   5   6
BRANCH   5  29
ATOM     29  CB  ASN A   4       6.389  -2.938  21.561  0.00  0.00    +0.127 C 
BRANCH  29  30
ATOM     30  CG  ASN A   4       5.932  -4.327  21.926  0.00  0.00    +0.213 C 
ATOM     31  ND2 ASN A   4       6.868  -5.308  21.798  0.00  0.00    -0.329 N 
ATOM     32 HD21 ASN A   4       7.721  -5.192  21.265  0.00  0.00    +0.145 HD
ATOM     33 HD22 ASN A   4       6.569  -6.256  21.990  0.00  0.00    +0.145 HD
ATOM     34  OD1 ASN A   4       4.805  -4.570  22.348  0.00  0.00    -0.276 OA
ENDBRANCH  29  30
ENDBRANCH   5  29
ENDBRANCH   3   5
BRANCH   1  35
ATOM     35  CA  GLN A   3       8.465  -2.929  25.963  0.00  0.00    +0.159 C 
BRANCH  35  37
ATOM     36  C   LEU A   2       6.700  -1.340  26.716  0.00  0.00    +0.234 C 
ATOM     37  N   GLN A   3       7.069  -2.523  26.125  0.00  0.00    -0.302 N 
ATOM     38  H   GLN A   3       6.367  -3.142  25.721  0.00  0.00    +0.150 HD
ATOM     39  O   LEU A   2       7.526  -0.564  27.204  0.00  0.00    -0.274 OA
BRANCH  36  40
ATOM     40  CA  LEU A   2       5.175  -1.067  26.753  0.00  0.00    +0.159 C 
BRANCH  40  43
ATOM     41  C   LYS A   1       4.294   1.235  27.051  0.00  0.00    +0.230 C 
ATOM     42  O   LYS A   1       3.603   0.939  28.022  0.00  0.00    -0.274 OA
ATOM     43  N   LEU A   2       4.978   0.310  26.294  0.00  0.00    -0.303 N 
ATOM     44  H   LEU A   2       5.671   0.646  25.634  0.00  0.00    +0.149 HD
BRANCH  41  45
ATOM     45  CA  LYS A   1       4.514   2.704  26.615  0.00  0.00    +0.138 C 
BRANCH  45  46
ATOM     46  N   LYS A   1       5.715   2.784  25.768  0.00  0.00    -0.320 NA
ATOM     47  H1  LYS A   1       5.601   2.147  24.976  0.00  0.00    +0.119 HD
ATOM     48  H2  LYS A   1       5.733   3.713  25.338  0.00  0.00    +0.119 HD
ENDBRANCH  45  46
BRANCH  45  49
ATOM     49  CB  LYS A   1       3.285   3.199  25.828  0.00  0.00    +0.028 C 
BRANCH  49  50
ATOM     50  CG  LYS A   1       3.680   3.698  24.436  0.00  0.00    +0.007 C 
BRANCH  50  51
ATOM     51  CD  LYS A   1       2.655   3.401  23.342  0.00  0.00    +0.051 C 
BRANCH  51  52
ATOM     52  CE  LYS A   1       3.365   3.484  21.995  0.00  0.00    +0.127 C 
BRANCH  52  53
ATOM     53  NZ  LYS A   1       4.594   4.292  22.086  0.00  0.00    +0.219 N 
ATOM     54  HZ1 LYS A   1       5.352   3.915  21.506  0.00  0.00    +0.199 HD
ATOM     55  HZ2 LYS A   1       4.375   5.232  21.690  0.00  0.00    +0.199 HD
ATOM     56  HZ3 LYS A   1       4.928   4.414  23.047  0.00  0.00    +0.199 HD
ENDBRANCH  52  53
ENDBRANCH  51  52
ENDBRANCH  50  51
ENDBRANCH  49  50
ENDBRANCH  45  49
ENDBRANCH  41  45
ENDBRANCH  40  43
BRANCH  40  57
ATOM     57  CB  LEU A   2       4.413  -2.055  25.862  0.00  0.00    +0.034 C 
BRANCH  57  58
ATOM     58  CG  LEU A   2       3.434  -2.966  26.635  0.00  0.00    -0.015 C 
ATOM     59  CD2 LEU A   2       4.005  -3.422  27.979  0.00  0.00    +0.007 C 
ATOM     60  CD1 LEU A   2       3.077  -4.187  25.785  0.00  0.00    +0.007 C 
ENDBRANCH  57  58
ENDBRANCH  40  57
ENDBRANCH  36  40
ENDBRANCH  35  37
BRANCH  35  61
ATOM     61  CB  GLN A   3       8.698  -4.326  26.557  0.00  0.00    +0.041 C 
BRANCH  61  62
ATOM     62  CG  GLN A   3       7.454  -4.911  27.220  0.00  0.00    +0.098 C 
BRANCH  62  63
ATOM     63  CD  GLN A   3       6.600  -5.631  26.192  0.00  0.00    +0.211 C 
ATOM     64  NE2 GLN A   3       5.737  -6.548  26.711  0.00  0.00    -0.329 N 
ATOM     65 HE21 GLN A   3       5.109  -7.061  26.108  0.00  0.00    +0.145 HD
ATOM     66 HE22 GLN A   3       5.590  -6.656  27.714  0.00  0.00    +0.145 HD
ATOM     67  OE1 GLN A   3       6.688  -5.442  24.975  0.00  0.00    -0.276 OA
ENDBRANCH  62  63
ENDBRANCH  61  62
ENDBRANCH  35  61
ENDBRANCH   1  35
TORSDOF 29
ENDMDL
