REMARK  Name = KLQSSQ-mmff94.pdb
REMARK  31 active torsions:
REMARK  status: ('A' for Active; 'I' for Inactive)
REMARK    1  A    between atoms: _1  and  _2
REMARK    2  A    between atoms: _2  and  _3
REMARK    3  A    between atoms: _2  and  _5
REMARK    4  A    between atoms: _5  and  _6
REMARK    5  A    between atoms: _6  and  _7
REMARK    6  A    between atoms: _7  and  _8
REMARK    7  A    between atoms: _8  and  _9
REMARK    8  A    between atoms: _23  and  _24
REMARK    9  A    between atoms: _24  and  _25
REMARK   10  A    between atoms: _24  and  _27
REMARK   11  A    between atoms: _27  and  _28
REMARK   12  A    between atoms: _28  and  _29
REMARK   13  A    between atoms: _28  and  _30
REMARK   14  A    between atoms: _42  and  _43
REMARK   15  A    between atoms: _43  and  _44
REMARK   16  A    between atoms: _43  and  _46
REMARK   17  A    between atoms: _46  and  _47
REMARK   18  A    between atoms: _47  and  _48
REMARK   19  A    between atoms: _59  and  _60
REMARK   20  A    between atoms: _60  and  _61
REMARK   21  A    between atoms: _60  and  _63
REMARK   22  A    between atoms: _63  and  _64
REMARK   23  A    between atoms: _70  and  _71
REMARK   24  A    between atoms: _71  and  _72
REMARK   25  A    between atoms: _71  and  _74
REMARK   26  A    between atoms: _74  and  _75
REMARK   27  A    between atoms: _81  and  _82
REMARK   28  A    between atoms: _82  and  _83
REMARK   29  A    between atoms: _82  and  _85
REMARK   30  A    between atoms: _85  and  _86
REMARK   31  A    between atoms: _86  and  _87
REMARK                            x       y       z     vdW  Elec       q    Type
REMARK                         _______ _______ _______ _____ _____    ______ ____
ROOT
ATOM      1  CA  GLN A   3       5.911   1.574  -1.357  0.00  0.00    +0.159 C 
ENDROOT
BRANCH   1   2
ATOM      2  C   GLN A   3       7.449   1.444  -1.364  0.00  0.00    +0.234 C 
ATOM      3  O   GLN A   3       8.006   0.381  -1.088  0.00  0.00    -0.274 OA
ATOM      4  N   SER A   4       8.154   2.578  -1.662  0.00  0.00    -0.301 N 
ATOM      5  H   SER A   4       7.697   3.444  -1.937  0.00  0.00    +0.150 HD
BRANCH   4   6
ATOM      6  CA  SER A   4       9.625   2.610  -1.645  0.00  0.00    +0.184 C 
BRANCH   6   7
ATOM      7  C   SER A   4      10.063   4.086  -1.583  0.00  0.00    +0.236 C 
ATOM      8  N   SER A   5      11.401   4.303  -1.367  0.00  0.00    -0.300 N 
ATOM      9  H   SER A   5      12.065   3.530  -1.393  0.00  0.00    +0.150 HD
ATOM     10  O   SER A   4       9.248   5.006  -1.670  0.00  0.00    -0.274 OA
BRANCH   8  11
ATOM     11  CA  SER A   5      12.015   5.636  -1.458  0.00  0.00    +0.184 C 
BRANCH  11  12
ATOM     12  C   SER A   5      13.538   5.423  -1.544  0.00  0.00    +0.236 C 
ATOM     13  N   GLN A   6      14.289   6.540  -1.813  0.00  0.00    -0.304 N 
ATOM     14  H   GLN A   6      13.855   7.458  -1.888  0.00  0.00    +0.149 HD
ATOM     15  O   SER A   5      14.038   4.304  -1.415  0.00  0.00    -0.274 OA
BRANCH  13  16
ATOM     16  CA  GLN A   6      15.752   6.521  -1.829  0.00  0.00    +0.136 C 
BRANCH  16  17
ATOM     17  C   GLN A   6      16.202   7.970  -1.676  0.00  0.00    +0.245 C 
ATOM     18  O   GLN A   6      15.441   8.927  -1.820  0.00  0.00    -0.299 OA
ENDBRANCH  16  17
BRANCH  16  19
ATOM     19  CB  GLN A   6      16.295   5.906  -3.123  0.00  0.00    +0.039 C 
BRANCH  19  20
ATOM     20  CG  GLN A   6      17.821   5.798  -3.129  0.00  0.00    +0.098 C 
BRANCH  20  21
ATOM     21  CD  GLN A   6      18.373   4.829  -4.153  0.00  0.00    +0.211 C 
ATOM     22  OE1 GLN A   6      19.348   4.121  -3.924  0.00  0.00    -0.276 OA
ATOM     23  NE2 GLN A   6      17.801   4.836  -5.387  0.00  0.00    -0.329 N 
ATOM     24 HE21 GLN A   6      16.947   5.320  -5.616  0.00  0.00    +0.145 HD
ATOM     25 HE22 GLN A   6      18.171   4.180  -6.065  0.00  0.00    +0.145 HD
ENDBRANCH  20  21
ENDBRANCH  19  20
ENDBRANCH  16  19
ENDBRANCH  13  16
ENDBRANCH  11  12
BRANCH  11  26
ATOM     26  CB  SER A   5      11.640   6.528  -0.268  0.00  0.00    +0.187 C 
BRANCH  26  27
ATOM     27  OG  SER A   5      11.895   5.876   0.977  0.00  0.00    -0.393 OA
ATOM     28  H   SER A   5      11.538   4.974   0.897  0.00  0.00    +0.209 HD
ENDBRANCH  26  27
ENDBRANCH  11  26
ENDBRANCH   8  11
ENDBRANCH   6   7
BRANCH   6  29
ATOM     29  CB  SER A   4      10.241   1.894  -2.855  0.00  0.00    +0.187 C 
BRANCH  29  30
ATOM     30  OG  SER A   4       9.751   2.432  -4.083  0.00  0.00    -0.393 OA
ATOM     31  H   SER A   4       8.824   2.148  -4.167  0.00  0.00    +0.209 HD
ENDBRANCH  29  30
ENDBRANCH   6  29
ENDBRANCH   4   6
ENDBRANCH   1   2
BRANCH   1  34
ATOM     32  C   LEU A   2       4.100  -0.048  -1.919  0.00  0.00    +0.234 C 
ATOM     33  O   LEU A   2       3.275   0.849  -2.111  0.00  0.00    -0.274 OA
ATOM     34  N   GLN A   3       5.399   0.218  -1.559  0.00  0.00    -0.302 N 
ATOM     35  H   GLN A   3       6.040  -0.545  -1.343  0.00  0.00    +0.150 HD
BRANCH  32  36
ATOM     36  CA  LEU A   2       3.750  -1.551  -2.042  0.00  0.00    +0.159 C 
BRANCH  36  38
ATOM     37  C   LYS A   1       1.480  -2.157  -1.256  0.00  0.00    +0.230 C 
ATOM     38  N   LEU A   2       2.305  -1.648  -2.231  0.00  0.00    -0.303 N 
ATOM     39  H   LEU A   2       1.908  -1.012  -2.914  0.00  0.00    +0.149 HD
ATOM     40  O   LYS A   1       1.894  -2.740  -0.257  0.00  0.00    -0.274 OA
BRANCH  37  41
ATOM     41  CA  LYS A   1      -0.024  -1.905  -1.500  0.00  0.00    +0.138 C 
BRANCH  41  42
ATOM     42  N   LYS A   1      -0.745  -3.187  -1.447  0.00  0.00    -0.320 NA
ATOM     43  H1  LYS A   1      -0.374  -3.808  -2.168  0.00  0.00    +0.119 HD
ATOM     44  H2  LYS A   1      -0.506  -3.651  -0.566  0.00  0.00    +0.119 HD
ENDBRANCH  41  42
BRANCH  41  45
ATOM     45  CB  LYS A   1      -0.570  -0.957  -0.418  0.00  0.00    +0.028 C 
BRANCH  45  46
ATOM     46  CG  LYS A   1       0.132   0.403  -0.453  0.00  0.00    +0.007 C 
BRANCH  46  47
ATOM     47  CD  LYS A   1      -0.333   1.343   0.659  0.00  0.00    +0.051 C 
BRANCH  47  48
ATOM     48  CE  LYS A   1       0.546   2.587   0.657  0.00  0.00    +0.127 C 
BRANCH  48  49
ATOM     49  NZ  LYS A   1       0.187   3.469   1.786  0.00  0.00    +0.219 N 
ATOM     50  HZ1 LYS A   1       0.242   2.977   2.686  0.00  0.00    +0.199 HD
ATOM     51  HZ2 LYS A   1       0.873   4.239   1.827  0.00  0.00    +0.199 HD
ATOM     52  HZ3 LYS A   1      -0.752   3.872   1.687  0.00  0.00    +0.199 HD
ENDBRANCH  48  49
ENDBRANCH  47  48
ENDBRANCH  46  47
ENDBRANCH  45  46
ENDBRANCH  41  45
ENDBRANCH  37  41
ENDBRANCH  36  38
BRANCH  36  53
ATOM     53  CB  LEU A   2       4.498  -2.207  -3.209  0.00  0.00    +0.034 C 
BRANCH  53  54
ATOM     54  CG  LEU A   2       4.256  -3.727  -3.331  0.00  0.00    -0.015 C 
ATOM     55  CD2 LEU A   2       4.791  -4.498  -2.122  0.00  0.00    +0.007 C 
ATOM     56  CD1 LEU A   2       4.907  -4.259  -4.609  0.00  0.00    +0.007 C 
ENDBRANCH  53  54
ENDBRANCH  36  53
ENDBRANCH  32  36
ENDBRANCH   1  34
BRANCH   1  57
ATOM     57  CB  GLN A   3       5.402   2.144  -0.024  0.00  0.00    +0.041 C 
BRANCH  57  58
ATOM     58  CG  GLN A   3       5.317   3.669  -0.007  0.00  0.00    +0.098 C 
BRANCH  58  59
ATOM     59  CD  GLN A   3       4.558   4.130   1.225  0.00  0.00    +0.211 C 
ATOM     60  NE2 GLN A   3       5.345   4.462   2.287  0.00  0.00    -0.329 N 
ATOM     61 HE21 GLN A   3       4.913   4.813   3.132  0.00  0.00    +0.145 HD
ATOM     62 HE22 GLN A   3       6.352   4.559   2.216  0.00  0.00    +0.145 HD
ATOM     63  OE1 GLN A   3       3.330   4.146   1.308  0.00  0.00    -0.276 OA
ENDBRANCH  58  59
ENDBRANCH  57  58
ENDBRANCH   1  57
TORSDOF 29
