MODEL 1
REMARK VINA RESULT:      -6.3      0.000      0.000
REMARK  Name = KLQSSQ-mmff94.pdb
REMARK  31 active torsions:
REMARK  status: ('A' for Active; 'I' for Inactive)
REMARK    1  A    between atoms: _1  and  _2
REMARK    2  A    between atoms: _2  and  _3
REMARK    3  A    between atoms: _2  and  _5
REMARK    4  A    between atoms: _5  and  _6
REMARK    5  A    between atoms: _6  and  _7
REMARK    6  A    between atoms: _7  and  _8
REMARK    7  A    between atoms: _8  and  _9
REMARK    8  A    between atoms: _23  and  _24
REMARK    9  A    between atoms: _24  and  _25
REMARK   10  A    between atoms: _24  and  _27
REMARK   11  A    between atoms: _27  and  _28
REMARK   12  A    between atoms: _28  and  _29
REMARK   13  A    between atoms: _28  and  _30
REMARK   14  A    between atoms: _42  and  _43
REMARK   15  A    between atoms: _43  and  _44
REMARK   16  A    between atoms: _43  and  _46
REMARK   17  A    between atoms: _46  and  _47
REMARK   18  A    between atoms: _47  and  _48
REMARK   19  A    between atoms: _59  and  _60
REMARK   20  A    between atoms: _60  and  _61
REMARK   21  A    between atoms: _60  and  _63
REMARK   22  A    between atoms: _63  and  _64
REMARK   23  A    between atoms: _70  and  _71
REMARK   24  A    between atoms: _71  and  _72
REMARK   25  A    between atoms: _71  and  _74
REMARK   26  A    between atoms: _74  and  _75
REMARK   27  A    between atoms: _81  and  _82
REMARK   28  A    between atoms: _82  and  _83
REMARK   29  A    between atoms: _82  and  _85
REMARK   30  A    between atoms: _85  and  _86
REMARK   31  A    between atoms: _86  and  _87
REMARK                            x       y       z     vdW  Elec       q    Type
REMARK                         _______ _______ _______ _____ _____    ______ ____
ROOT
ATOM      1  CA  GLN A   3       8.712  -0.390  25.939  0.00  0.00    +0.159 C 
ENDROOT
BRANCH   1   2
ATOM      2  C   GLN A   3       8.666  -1.841  25.413  0.00  0.00    +0.234 C 
ATOM      3  O   GLN A   3       8.747  -2.092  24.211  0.00  0.00    -0.274 OA
ATOM      4  N   SER A   4       8.500  -2.823  26.352  0.00  0.00    -0.301 N 
ATOM      5  H   SER A   4       8.481  -2.622  27.349  0.00  0.00    +0.150 HD
BRANCH   4   6
ATOM      6  CA  SER A   4       8.378  -4.242  25.983  0.00  0.00    +0.184 C 
BRANCH   6   7
ATOM      7  C   SER A   4       7.340  -4.885  26.923  0.00  0.00    +0.236 C 
ATOM      8  N   SER A   5       6.139  -4.229  27.024  0.00  0.00    -0.300 N 
ATOM      9  H   SER A   5       5.916  -3.452  26.402  0.00  0.00    +0.150 HD
ATOM     10  O   SER A   4       7.601  -5.895  27.579  0.00  0.00    -0.274 OA
BRANCH   8  11
ATOM     11  CA  SER A   5       4.981  -4.795  27.730  0.00  0.00    +0.184 C 
BRANCH  11  12
ATOM     12  C   SER A   5       3.839  -4.904  26.703  0.00  0.00    +0.236 C 
ATOM     13  N   GLN A   6       4.182  -5.401  25.470  0.00  0.00    -0.304 N 
ATOM     14  H   GLN A   6       5.127  -5.731  25.282  0.00  0.00    +0.149 HD
ATOM     15  O   SER A   5       2.696  -4.529  26.971  0.00  0.00    -0.274 OA
BRANCH  13  16
ATOM     16  CA  GLN A   6       3.195  -5.658  24.421  0.00  0.00    +0.136 C 
BRANCH  16  17
ATOM     17  C   GLN A   6       2.876  -7.148  24.486  0.00  0.00    +0.245 C 
ATOM     18  O   GLN A   6       3.652  -7.979  24.957  0.00  0.00    -0.299 OA
ENDBRANCH  16  17
BRANCH  16  19
ATOM     19  CB  GLN A   6       3.724  -5.264  23.038  0.00  0.00    +0.039 C 
BRANCH  19  20
ATOM     20  CG  GLN A   6       5.230  -5.492  22.897  0.00  0.00    +0.098 C 
BRANCH  20  21
ATOM     21  CD  GLN A   6       5.989  -4.310  22.333  0.00  0.00    +0.211 C 
ATOM     22  OE1 GLN A   6       5.438  -3.431  21.679  0.00  0.00    -0.276 OA
ATOM     23  NE2 GLN A   6       7.339  -4.301  22.498  0.00  0.00    -0.329 N 
ATOM     24 HE21 GLN A   6       7.844  -4.936  23.097  0.00  0.00    +0.145 HD
ATOM     25 HE22 GLN A   6       7.840  -3.504  22.124  0.00  0.00    +0.145 HD
ENDBRANCH  20  21
ENDBRANCH  19  20
ENDBRANCH  16  19
ENDBRANCH  13  16
ENDBRANCH  11  12
BRANCH  11  26
ATOM     26  CB  SER A   5       4.568  -3.946  28.939  0.00  0.00    +0.187 C 
BRANCH  26  27
ATOM     27  OG  SER A   5       4.358  -2.581  28.573  0.00  0.00    -0.393 OA
ATOM     28  H   SER A   5       5.047  -2.063  29.025  0.00  0.00    +0.209 HD
ENDBRANCH  26  27
ENDBRANCH  11  26
ENDBRANCH   8  11
ENDBRANCH   6   7
BRANCH   6  29
ATOM     29  CB  SER A   4       9.723  -4.981  26.045  0.00  0.00    +0.187 C 
BRANCH  29  30
ATOM     30  OG  SER A   4       9.735  -6.113  25.176  0.00  0.00    -0.393 OA
ATOM     31  H   SER A   4      10.006  -6.879  25.711  0.00  0.00    +0.209 HD
ENDBRANCH  29  30
ENDBRANCH   6  29
ENDBRANCH   4   6
ENDBRANCH   1   2
BRANCH   1  34
ATOM     32  C   LEU A   2      10.189   0.927  24.419  0.00  0.00    +0.234 C 
ATOM     33  O   LEU A   2      11.199   0.667  25.077  0.00  0.00    -0.274 OA
ATOM     34  N   GLN A   3       8.948   0.448  24.763  0.00  0.00    -0.302 N 
ATOM     35  H   GLN A   3       8.122   0.734  24.237  0.00  0.00    +0.150 HD
BRANCH  32  36
ATOM     36  CA  LEU A   2      10.216   1.830  23.161  0.00  0.00    +0.159 C 
BRANCH  36  38
ATOM     37  C   LYS A   1       9.450   0.024  21.647  0.00  0.00    +0.230 C 
ATOM     38  N   LEU A   2       9.268   1.269  22.202  0.00  0.00    -0.303 N 
ATOM     39  H   LEU A   2       8.327   1.644  22.244  0.00  0.00    +0.149 HD
ATOM     40  O   LYS A   1      10.493  -0.617  21.754  0.00  0.00    -0.274 OA
BRANCH  37  41
ATOM     41  CA  LYS A   1       8.215  -0.527  20.902  0.00  0.00    +0.138 C 
BRANCH  41  42
ATOM     42  N   LYS A   1       7.263  -1.075  21.881  0.00  0.00    -0.320 NA
ATOM     43  H1  LYS A   1       7.754  -1.727  22.494  0.00  0.00    +0.119 HD
ATOM     44  H2  LYS A   1       6.971  -0.315  22.501  0.00  0.00    +0.119 HD
ENDBRANCH  41  42
BRANCH  41  45
ATOM     45  CB  LYS A   1       7.546   0.606  20.104  0.00  0.00    +0.028 C 
BRANCH  45  46
ATOM     46  CG  LYS A   1       7.018   0.111  18.755  0.00  0.00    +0.007 C 
BRANCH  46  47
ATOM     47  CD  LYS A   1       5.728   0.810  18.328  0.00  0.00    +0.051 C 
BRANCH  47  48
ATOM     48  CE  LYS A   1       5.198   1.632  19.495  0.00  0.00    +0.127 C 
BRANCH  48  49
ATOM     49  NZ  LYS A   1       3.785   1.996  19.266  0.00  0.00    +0.219 N 
ATOM     50  HZ1 LYS A   1       3.147   1.418  19.825  0.00  0.00    +0.199 HD
ATOM     51  HZ2 LYS A   1       3.647   2.972  19.574  0.00  0.00    +0.199 HD
ATOM     52  HZ3 LYS A   1       3.516   1.924  18.278  0.00  0.00    +0.199 HD
ENDBRANCH  48  49
ENDBRANCH  47  48
ENDBRANCH  46  47
ENDBRANCH  45  46
ENDBRANCH  41  45
ENDBRANCH  37  41
ENDBRANCH  36  38
BRANCH  36  53
ATOM     53  CB  LEU A   2       9.851   3.280  23.504  0.00  0.00    +0.034 C 
BRANCH  53  54
ATOM     54  CG  LEU A   2       8.340   3.509  23.722  0.00  0.00    -0.015 C 
ATOM     55  CD2 LEU A   2       7.774   4.576  22.781  0.00  0.00    +0.007 C 
ATOM     56  CD1 LEU A   2       8.077   3.913  25.174  0.00  0.00    +0.007 C 
ENDBRANCH  53  54
ENDBRANCH  36  53
ENDBRANCH  32  36
ENDBRANCH   1  34
BRANCH   1  57
ATOM     57  CB  GLN A   3       7.392   0.002  26.619  0.00  0.00    +0.041 C 
BRANCH  57  58
ATOM     58  CG  GLN A   3       6.301   0.422  25.635  0.00  0.00    +0.098 C 
BRANCH  58  59
ATOM     59  CD  GLN A   3       5.349  -0.737  25.396  0.00  0.00    +0.211 C 
ATOM     60  NE2 GLN A   3       5.596  -1.451  24.261  0.00  0.00    -0.329 N 
ATOM     61 HE21 GLN A   3       5.026  -2.260  24.052  0.00  0.00    +0.145 HD
ATOM     62 HE22 GLN A   3       6.439  -1.333  23.710  0.00  0.00    +0.145 HD
ATOM     63  OE1 GLN A   3       4.383  -0.991  26.114  0.00  0.00    -0.276 OA
ENDBRANCH  58  59
ENDBRANCH  57  58
ENDBRANCH   1  57
TORSDOF 29
ENDMDL
MODEL 2
REMARK VINA RESULT:      -6.2      2.008      5.205
REMARK  Name = KLQSSQ-mmff94.pdb
REMARK  31 active torsions:
REMARK  status: ('A' for Active; 'I' for Inactive)
REMARK    1  A    between atoms: _1  and  _2
REMARK    2  A    between atoms: _2  and  _3
REMARK    3  A    between atoms: _2  and  _5
REMARK    4  A    between atoms: _5  and  _6
REMARK    5  A    between atoms: _6  and  _7
REMARK    6  A    between atoms: _7  and  _8
REMARK    7  A    between atoms: _8  and  _9
REMARK    8  A    between atoms: _23  and  _24
REMARK    9  A    between atoms: _24  and  _25
REMARK   10  A    between atoms: _24  and  _27
REMARK   11  A    between atoms: _27  and  _28
REMARK   12  A    between atoms: _28  and  _29
REMARK   13  A    between atoms: _28  and  _30
REMARK   14  A    between atoms: _42  and  _43
REMARK   15  A    between atoms: _43  and  _44
REMARK   16  A    between atoms: _43  and  _46
REMARK   17  A    between atoms: _46  and  _47
REMARK   18  A    between atoms: _47  and  _48
REMARK   19  A    between atoms: _59  and  _60
REMARK   20  A    between atoms: _60  and  _61
REMARK   21  A    between atoms: _60  and  _63
REMARK   22  A    between atoms: _63  and  _64
REMARK   23  A    between atoms: _70  and  _71
REMARK   24  A    between atoms: _71  and  _72
REMARK   25  A    between atoms: _71  and  _74
REMARK   26  A    between atoms: _74  and  _75
REMARK   27  A    between atoms: _81  and  _82
REMARK   28  A    between atoms: _82  and  _83
REMARK   29  A    between atoms: _82  and  _85
REMARK   30  A    between atoms: _85  and  _86
REMARK   31  A    between atoms: _86  and  _87
REMARK                            x       y       z     vdW  Elec       q    Type
REMARK                         _______ _______ _______ _____ _____    ______ ____
ROOT
ATOM      1  CA  GLN A   3       6.753  -0.366  20.977  0.00  0.00    +0.159 C 
ENDROOT
BRANCH   1   2
ATOM      2  C   GLN A   3       6.819  -1.778  21.598  0.00  0.00    +0.234 C 
ATOM      3  O   GLN A   3       7.664  -2.069  22.445  0.00  0.00    -0.274 OA
ATOM      4  N   SER A   4       5.911  -2.690  21.134  0.00  0.00    -0.301 N 
ATOM      5  H   SER A   4       5.182  -2.440  20.470  0.00  0.00    +0.150 HD
BRANCH   4   6
ATOM      6  CA  SER A   4       5.902  -4.087  21.595  0.00  0.00    +0.184 C 
BRANCH   6   7
ATOM      7  C   SER A   4       4.981  -4.170  22.828  0.00  0.00    +0.236 C 
ATOM      8  N   SER A   5       4.248  -5.324  22.949  0.00  0.00    -0.300 N 
ATOM      9  H   SER A   5       4.422  -6.118  22.334  0.00  0.00    +0.150 HD
ATOM     10  O   SER A   4       4.878  -3.232  23.621  0.00  0.00    -0.274 OA
BRANCH   8  11
ATOM     11  CA  SER A   5       3.460  -5.643  24.149  0.00  0.00    +0.184 C 
BRANCH  11  12
ATOM     12  C   SER A   5       4.397  -6.394  25.113  0.00  0.00    +0.236 C 
ATOM     13  N   GLN A   6       5.358  -5.636  25.734  0.00  0.00    -0.304 N 
ATOM     14  H   GLN A   6       5.396  -4.627  25.602  0.00  0.00    +0.149 HD
ATOM     15  O   SER A   5       4.305  -7.612  25.279  0.00  0.00    -0.274 OA
BRANCH  13  16
ATOM     16  CA  GLN A   6       6.258  -6.182  26.750  0.00  0.00    +0.136 C 
BRANCH  16  17
ATOM     17  C   GLN A   6       5.442  -6.293  28.033  0.00  0.00    +0.245 C 
ATOM     18  O   GLN A   6       5.410  -7.313  28.722  0.00  0.00    -0.299 OA
ENDBRANCH  16  17
BRANCH  16  19
ATOM     19  CB  GLN A   6       7.489  -5.292  26.951  0.00  0.00    +0.039 C 
BRANCH  19  20
ATOM     20  CG  GLN A   6       7.850  -4.493  25.698  0.00  0.00    +0.098 C 
BRANCH  20  21
ATOM     21  CD  GLN A   6       9.272  -4.695  25.218  0.00  0.00    +0.211 C 
ATOM     22  OE1 GLN A   6       9.801  -3.943  24.407  0.00  0.00    -0.276 OA
ATOM     23  NE2 GLN A   6       9.922  -5.808  25.653  0.00  0.00    -0.329 N 
ATOM     24 HE21 GLN A   6       9.586  -6.415  26.384  0.00  0.00    +0.145 HD
ATOM     25 HE22 GLN A   6      10.876  -5.933  25.333  0.00  0.00    +0.145 HD
ENDBRANCH  20  21
ENDBRANCH  19  20
ENDBRANCH  16  19
ENDBRANCH  13  16
ENDBRANCH  11  12
BRANCH  11  26
ATOM     26  CB  SER A   5       2.213  -6.472  23.818  0.00  0.00    +0.187 C 
BRANCH  26  27
ATOM     27  OG  SER A   5       2.538  -7.612  23.020  0.00  0.00    -0.393 OA
ATOM     28  H   SER A   5       1.949  -7.585  22.245  0.00  0.00    +0.209 HD
ENDBRANCH  26  27
ENDBRANCH  11  26
ENDBRANCH   8  11
ENDBRANCH   6   7
BRANCH   6  29
ATOM     29  CB  SER A   4       7.310  -4.609  21.912  0.00  0.00    +0.187 C 
BRANCH  29  30
ATOM     30  OG  SER A   4       7.283  -5.986  22.289  0.00  0.00    -0.393 OA
ATOM     31  H   SER A   4       7.534  -6.500  21.502  0.00  0.00    +0.209 HD
ENDBRANCH  29  30
ENDBRANCH   6  29
ENDBRANCH   4   6
ENDBRANCH   1   2
BRANCH   1  34
ATOM     32  C   LEU A   2       6.380   1.859  22.041  0.00  0.00    +0.234 C 
ATOM     33  O   LEU A   2       5.852   2.322  21.027  0.00  0.00    -0.274 OA
ATOM     34  N   GLN A   3       6.836   0.565  22.103  0.00  0.00    -0.302 N 
ATOM     35  H   GLN A   3       7.326   0.230  22.932  0.00  0.00    +0.150 HD
BRANCH  32  36
ATOM     36  CA  LEU A   2       6.598   2.692  23.328  0.00  0.00    +0.159 C 
BRANCH  36  38
ATOM     37  C   LYS A   1       5.966   1.067  25.088  0.00  0.00    +0.230 C 
ATOM     38  N   LEU A   2       6.935   1.758  24.400  0.00  0.00    -0.303 N 
ATOM     39  H   LEU A   2       7.871   1.369  24.365  0.00  0.00    +0.149 HD
ATOM     40  O   LYS A   1       4.766   1.318  25.002  0.00  0.00    -0.274 OA
BRANCH  37  41
ATOM     41  CA  LYS A   1       6.506  -0.086  25.963  0.00  0.00    +0.138 C 
BRANCH  41  42
ATOM     42  N   LYS A   1       6.416  -1.348  25.211  0.00  0.00    -0.320 NA
ATOM     43  H1  LYS A   1       7.205  -1.945  25.465  0.00  0.00    +0.119 HD
ATOM     44  H2  LYS A   1       5.594  -1.859  25.544  0.00  0.00    +0.119 HD
ENDBRANCH  41  42
BRANCH  41  45
ATOM     45  CB  LYS A   1       7.973   0.193  26.334  0.00  0.00    +0.028 C 
BRANCH  45  46
ATOM     46  CG  LYS A   1       8.934  -0.703  25.549  0.00  0.00    +0.007 C 
BRANCH  46  47
ATOM     47  CD  LYS A   1      10.142   0.055  24.998  0.00  0.00    +0.051 C 
BRANCH  47  48
ATOM     48  CE  LYS A   1      10.127  -0.025  23.477  0.00  0.00    +0.127 C 
BRANCH  48  49
ATOM     49  NZ  LYS A   1      10.352  -1.417  23.036  0.00  0.00    +0.219 N 
ATOM     50  HZ1 LYS A   1       9.878  -2.092  23.648  0.00  0.00    +0.199 HD
ATOM     51  HZ2 LYS A   1       9.942  -1.529  22.096  0.00  0.00    +0.199 HD
ATOM     52  HZ3 LYS A   1      11.349  -1.657  22.989  0.00  0.00    +0.199 HD
ENDBRANCH  48  49
ENDBRANCH  47  48
ENDBRANCH  46  47
ENDBRANCH  45  46
ENDBRANCH  41  45
ENDBRANCH  37  41
ENDBRANCH  36  38
BRANCH  36  53
ATOM     53  CB  LEU A   2       7.711   3.731  23.141  0.00  0.00    +0.034 C 
BRANCH  53  54
ATOM     54  CG  LEU A   2       8.797   3.687  24.237  0.00  0.00    -0.015 C 
ATOM     55  CD2 LEU A   2       8.729   4.899  25.169  0.00  0.00    +0.007 C 
ATOM     56  CD1 LEU A   2      10.184   3.609  23.596  0.00  0.00    +0.007 C 
ENDBRANCH  53  54
ENDBRANCH  36  53
ENDBRANCH  32  36
ENDBRANCH   1  34
BRANCH   1  57
ATOM     57  CB  GLN A   3       7.914  -0.128  20.000  0.00  0.00    +0.041 C 
BRANCH  57  58
ATOM     58  CG  GLN A   3       7.459   0.311  18.609  0.00  0.00    +0.098 C 
BRANCH  58  59
ATOM     59  CD  GLN A   3       6.072  -0.236  18.323  0.00  0.00    +0.211 C 
ATOM     60  NE2 GLN A   3       5.081   0.700  18.317  0.00  0.00    -0.329 N 
ATOM     61 HE21 GLN A   3       4.135   0.417  18.098  0.00  0.00    +0.145 HD
ATOM     62 HE22 GLN A   3       5.267   1.697  18.332  0.00  0.00    +0.145 HD
ATOM     63  OE1 GLN A   3       5.824  -1.432  18.174  0.00  0.00    -0.276 OA
ENDBRANCH  58  59
ENDBRANCH  57  58
ENDBRANCH   1  57
TORSDOF 29
ENDMDL
MODEL 3
REMARK VINA RESULT:      -6.1      2.086      6.542
REMARK  Name = KLQSSQ-mmff94.pdb
REMARK  31 active torsions:
REMARK  status: ('A' for Active; 'I' for Inactive)
REMARK    1  A    between atoms: _1  and  _2
REMARK    2  A    between atoms: _2  and  _3
REMARK    3  A    between atoms: _2  and  _5
REMARK    4  A    between atoms: _5  and  _6
REMARK    5  A    between atoms: _6  and  _7
REMARK    6  A    between atoms: _7  and  _8
REMARK    7  A    between atoms: _8  and  _9
REMARK    8  A    between atoms: _23  and  _24
REMARK    9  A    between atoms: _24  and  _25
REMARK   10  A    between atoms: _24  and  _27
REMARK   11  A    between atoms: _27  and  _28
REMARK   12  A    between atoms: _28  and  _29
REMARK   13  A    between atoms: _28  and  _30
REMARK   14  A    between atoms: _42  and  _43
REMARK   15  A    between atoms: _43  and  _44
REMARK   16  A    between atoms: _43  and  _46
REMARK   17  A    between atoms: _46  and  _47
REMARK   18  A    between atoms: _47  and  _48
REMARK   19  A    between atoms: _59  and  _60
REMARK   20  A    between atoms: _60  and  _61
REMARK   21  A    between atoms: _60  and  _63
REMARK   22  A    between atoms: _63  and  _64
REMARK   23  A    between atoms: _70  and  _71
REMARK   24  A    between atoms: _71  and  _72
REMARK   25  A    between atoms: _71  and  _74
REMARK   26  A    between atoms: _74  and  _75
REMARK   27  A    between atoms: _81  and  _82
REMARK   28  A    between atoms: _82  and  _83
REMARK   29  A    between atoms: _82  and  _85
REMARK   30  A    between atoms: _85  and  _86
REMARK   31  A    between atoms: _86  and  _87
REMARK                            x       y       z     vdW  Elec       q    Type
REMARK                         _______ _______ _______ _____ _____    ______ ____
ROOT
ATOM      1  CA  GLN A   3       8.871  -0.161  24.331  0.00  0.00    +0.159 C 
ENDROOT
BRANCH   1   2
ATOM      2  C   GLN A   3       9.391  -1.608  24.188  0.00  0.00    +0.234 C 
ATOM      3  O   GLN A   3      10.245  -1.905  23.353  0.00  0.00    -0.274 OA
ATOM      4  N   SER A   4       8.829  -2.541  25.016  0.00  0.00    -0.301 N 
ATOM      5  H   SER A   4       8.159  -2.291  25.739  0.00  0.00    +0.150 HD
BRANCH   4   6
ATOM      6  CA  SER A   4       9.188  -3.966  24.944  0.00  0.00    +0.184 C 
BRANCH   6   7
ATOM      7  C   SER A   4       8.143  -4.670  24.058  0.00  0.00    +0.236 C 
ATOM      8  N   SER A   5       6.897  -4.093  24.030  0.00  0.00    -0.300 N 
ATOM      9  H   SER A   5       6.736  -3.182  24.458  0.00  0.00    +0.150 HD
ATOM     10  O   SER A   4       8.403  -5.715  23.458  0.00  0.00    -0.274 OA
BRANCH   8  11
ATOM     11  CA  SER A   5       5.841  -4.528  23.105  0.00  0.00    +0.184 C 
BRANCH  11  12
ATOM     12  C   SER A   5       6.098  -3.814  21.764  0.00  0.00    +0.236 C 
ATOM     13  N   GLN A   6       6.504  -2.506  21.845  0.00  0.00    -0.304 N 
ATOM     14  H   GLN A   6       6.679  -2.066  22.747  0.00  0.00    +0.149 HD
ATOM     15  O   SER A   5       5.911  -4.384  20.687  0.00  0.00    -0.274 OA
BRANCH  13  16
ATOM     16  CA  GLN A   6       6.883  -1.723  20.668  0.00  0.00    +0.136 C 
BRANCH  16  17
ATOM     17  C   GLN A   6       7.705  -0.546  21.182  0.00  0.00    +0.245 C 
ATOM     18  O   GLN A   6       8.775  -0.205  20.677  0.00  0.00    -0.299 OA
ENDBRANCH  16  17
BRANCH  16  19
ATOM     19  CB  GLN A   6       5.654  -1.243  19.889  0.00  0.00    +0.039 C 
BRANCH  19  20
ATOM     20  CG  GLN A   6       6.001  -0.763  18.479  0.00  0.00    +0.098 C 
BRANCH  20  21
ATOM     21  CD  GLN A   6       5.642   0.683  18.208  0.00  0.00    +0.211 C 
ATOM     22  OE1 GLN A   6       6.220   1.351  17.357  0.00  0.00    -0.276 OA
ATOM     23  NE2 GLN A   6       4.708   1.254  19.015  0.00  0.00    -0.329 N 
ATOM     24 HE21 GLN A   6       4.132   0.745  19.668  0.00  0.00    +0.145 HD
ATOM     25 HE22 GLN A   6       4.468   2.219  18.823  0.00  0.00    +0.145 HD
ENDBRANCH  20  21
ENDBRANCH  19  20
ENDBRANCH  16  19
ENDBRANCH  13  16
ENDBRANCH  11  12
BRANCH  11  26
ATOM     26  CB  SER A   5       4.438  -4.220  23.643  0.00  0.00    +0.187 C 
BRANCH  26  27
ATOM     27  OG  SER A   5       3.424  -4.832  22.845  0.00  0.00    -0.393 OA
ATOM     28  H   SER A   5       2.844  -4.115  22.533  0.00  0.00    +0.209 HD
ENDBRANCH  26  27
ENDBRANCH  11  26
ENDBRANCH   8  11
ENDBRANCH   6   7
BRANCH   6  29
ATOM     29  CB  SER A   4       9.277  -4.619  26.331  0.00  0.00    +0.187 C 
BRANCH  29  30
ATOM     30  OG  SER A   4       8.418  -5.755  26.427  0.00  0.00    -0.393 OA
ATOM     31  H   SER A   4       8.691  -6.376  25.730  0.00  0.00    +0.209 HD
ENDBRANCH  29  30
ENDBRANCH   6  29
ENDBRANCH   4   6
ENDBRANCH   1   2
BRANCH   1  34
ATOM     32  C   LEU A   2       6.658  -0.053  25.479  0.00  0.00    +0.234 C 
ATOM     33  O   LEU A   2       6.043   0.038  24.414  0.00  0.00    -0.274 OA
ATOM     34  N   GLN A   3       8.027  -0.161  25.527  0.00  0.00    -0.302 N 
ATOM     35  H   GLN A   3       8.512  -0.169  26.424  0.00  0.00    +0.150 HD
BRANCH  32  36
ATOM     36  CA  LEU A   2       5.955  -0.032  26.859  0.00  0.00    +0.159 C 
BRANCH  36  38
ATOM     37  C   LYS A   1       4.562  -2.081  26.872  0.00  0.00    +0.230 C 
ATOM     38  N   LEU A   2       5.709  -1.420  27.243  0.00  0.00    -0.303 N 
ATOM     39  H   LEU A   2       6.534  -1.969  27.456  0.00  0.00    +0.149 HD
ATOM     40  O   LYS A   1       3.589  -1.520  26.374  0.00  0.00    -0.274 OA
BRANCH  37  41
ATOM     41  CA  LYS A   1       4.606  -3.608  27.100  0.00  0.00    +0.138 C 
BRANCH  41  42
ATOM     42  N   LYS A   1       6.003  -4.068  27.033  0.00  0.00    -0.320 NA
ATOM     43  H1  LYS A   1       6.089  -4.764  26.291  0.00  0.00    +0.119 HD
ATOM     44  H2  LYS A   1       6.581  -3.285  26.714  0.00  0.00    +0.119 HD
ENDBRANCH  41  42
BRANCH  41  45
ATOM     45  CB  LYS A   1       4.015  -3.940  28.481  0.00  0.00    +0.028 C 
BRANCH  45  46
ATOM     46  CG  LYS A   1       2.786  -4.845  28.366  0.00  0.00    +0.007 C 
BRANCH  46  47
ATOM     47  CD  LYS A   1       3.145  -6.320  28.192  0.00  0.00    +0.051 C 
BRANCH  47  48
ATOM     48  CE  LYS A   1       4.287  -6.668  29.138  0.00  0.00    +0.127 C 
BRANCH  48  49
ATOM     49  NZ  LYS A   1       5.337  -7.418  28.419  0.00  0.00    +0.219 N 
ATOM     50  HZ1 LYS A   1       5.469  -7.065  27.463  0.00  0.00    +0.199 HD
ATOM     51  HZ2 LYS A   1       6.232  -7.277  28.913  0.00  0.00    +0.199 HD
ATOM     52  HZ3 LYS A   1       5.141  -8.424  28.375  0.00  0.00    +0.199 HD
ENDBRANCH  48  49
ENDBRANCH  47  48
ENDBRANCH  46  47
ENDBRANCH  45  46
ENDBRANCH  41  45
ENDBRANCH  37  41
ENDBRANCH  36  38
BRANCH  36  53
ATOM     53  CB  LEU A   2       6.810   0.682  27.912  0.00  0.00    +0.034 C 
BRANCH  53  54
ATOM     54  CG  LEU A   2       6.343   2.120  28.226  0.00  0.00    -0.015 C 
ATOM     55  CD2 LEU A   2       4.826   2.279  28.091  0.00  0.00    +0.007 C 
ATOM     56  CD1 LEU A   2       7.048   3.113  27.301  0.00  0.00    +0.007 C 
ENDBRANCH  53  54
ENDBRANCH  36  53
ENDBRANCH  32  36
ENDBRANCH   1  34
BRANCH   1  57
ATOM     57  CB  GLN A   3      10.028   0.837  24.494  0.00  0.00    +0.041 C 
BRANCH  57  58
ATOM     58  CG  GLN A   3       9.619   2.287  24.244  0.00  0.00    +0.098 C 
BRANCH  58  59
ATOM     59  CD  GLN A   3       9.203   2.464  22.794  0.00  0.00    +0.211 C 
ATOM     60  NE2 GLN A   3      10.187   2.217  21.885  0.00  0.00    -0.329 N 
ATOM     61 HE21 GLN A   3       9.976   2.278  20.898  0.00  0.00    +0.145 HD
ATOM     62 HE22 GLN A   3      11.072   1.788  22.136  0.00  0.00    +0.145 HD
ATOM     63  OE1 GLN A   3       8.093   2.865  22.444  0.00  0.00    -0.276 OA
ENDBRANCH  58  59
ENDBRANCH  57  58
ENDBRANCH   1  57
TORSDOF 29
ENDMDL
MODEL 4
REMARK VINA RESULT:      -6.1      1.562      3.415
REMARK  Name = KLQSSQ-mmff94.pdb
REMARK  31 active torsions:
REMARK  status: ('A' for Active; 'I' for Inactive)
REMARK    1  A    between atoms: _1  and  _2
REMARK    2  A    between atoms: _2  and  _3
REMARK    3  A    between atoms: _2  and  _5
REMARK    4  A    between atoms: _5  and  _6
REMARK    5  A    between atoms: _6  and  _7
REMARK    6  A    between atoms: _7  and  _8
REMARK    7  A    between atoms: _8  and  _9
REMARK    8  A    between atoms: _23  and  _24
REMARK    9  A    between atoms: _24  and  _25
REMARK   10  A    between atoms: _24  and  _27
REMARK   11  A    between atoms: _27  and  _28
REMARK   12  A    between atoms: _28  and  _29
REMARK   13  A    between atoms: _28  and  _30
REMARK   14  A    between atoms: _42  and  _43
REMARK   15  A    between atoms: _43  and  _44
REMARK   16  A    between atoms: _43  and  _46
REMARK   17  A    between atoms: _46  and  _47
REMARK   18  A    between atoms: _47  and  _48
REMARK   19  A    between atoms: _59  and  _60
REMARK   20  A    between atoms: _60  and  _61
REMARK   21  A    between atoms: _60  and  _63
REMARK   22  A    between atoms: _63  and  _64
REMARK   23  A    between atoms: _70  and  _71
REMARK   24  A    between atoms: _71  and  _72
REMARK   25  A    between atoms: _71  and  _74
REMARK   26  A    between atoms: _74  and  _75
REMARK   27  A    between atoms: _81  and  _82
REMARK   28  A    between atoms: _82  and  _83
REMARK   29  A    between atoms: _82  and  _85
REMARK   30  A    between atoms: _85  and  _86
REMARK   31  A    between atoms: _86  and  _87
REMARK                            x       y       z     vdW  Elec       q    Type
REMARK                         _______ _______ _______ _____ _____    ______ ____
ROOT
ATOM      1  CA  GLN A   3       8.408  -0.350  26.241  0.00  0.00    +0.159 C 
ENDROOT
BRANCH   1   2
ATOM      2  C   GLN A   3       8.204  -1.749  25.620  0.00  0.00    +0.234 C 
ATOM      3  O   GLN A   3       7.085  -2.252  25.522  0.00  0.00    -0.274 OA
ATOM      4  N   SER A   4       9.335  -2.406  25.218  0.00  0.00    -0.301 N 
ATOM      5  H   SER A   4      10.255  -1.975  25.254  0.00  0.00    +0.150 HD
BRANCH   4   6
ATOM      6  CA  SER A   4       9.290  -3.770  24.666  0.00  0.00    +0.184 C 
BRANCH   6   7
ATOM      7  C   SER A   4       8.352  -3.752  23.443  0.00  0.00    +0.236 C 
ATOM      8  N   SER A   5       7.327  -4.665  23.465  0.00  0.00    -0.300 N 
ATOM      9  H   SER A   5       7.131  -5.208  24.305  0.00  0.00    +0.150 HD
ATOM     10  O   SER A   4       8.549  -2.999  22.488  0.00  0.00    -0.274 OA
BRANCH   8  11
ATOM     11  CA  SER A   5       6.242  -4.664  22.473  0.00  0.00    +0.184 C 
BRANCH  11  12
ATOM     12  C   SER A   5       4.920  -4.790  23.254  0.00  0.00    +0.236 C 
ATOM     13  N   GLN A   6       5.003  -4.611  24.612  0.00  0.00    -0.304 N 
ATOM     14  H   GLN A   6       5.883  -4.351  25.054  0.00  0.00    +0.149 HD
ATOM     15  O   SER A   5       3.863  -5.073  22.686  0.00  0.00    -0.274 OA
BRANCH  13  16
ATOM     16  CA  GLN A   6       3.825  -4.601  25.479  0.00  0.00    +0.136 C 
BRANCH  16  17
ATOM     17  C   GLN A   6       3.739  -3.199  26.072  0.00  0.00    +0.245 C 
ATOM     18  O   GLN A   6       2.960  -2.341  25.656  0.00  0.00    -0.299 OA
ENDBRANCH  16  17
BRANCH  16  19
ATOM     19  CB  GLN A   6       3.924  -5.663  26.580  0.00  0.00    +0.039 C 
BRANCH  19  20
ATOM     20  CG  GLN A   6       5.319  -6.282  26.677  0.00  0.00    +0.098 C 
BRANCH  20  21
ATOM     21  CD  GLN A   6       5.974  -6.133  28.033  0.00  0.00    +0.211 C 
ATOM     22  OE1 GLN A   6       6.537  -5.099  28.377  0.00  0.00    -0.276 OA
ATOM     23  NE2 GLN A   6       6.000  -7.231  28.836  0.00  0.00    -0.329 N 
ATOM     24 HE21 GLN A   6       5.483  -8.078  28.659  0.00  0.00    +0.145 HD
ATOM     25 HE22 GLN A   6       6.434  -7.121  29.745  0.00  0.00    +0.145 HD
ENDBRANCH  20  21
ENDBRANCH  19  20
ENDBRANCH  16  19
ENDBRANCH  13  16
ENDBRANCH  11  12
BRANCH  11  26
ATOM     26  CB  SER A   5       6.396  -5.794  21.447  0.00  0.00    +0.187 C 
BRANCH  26  27
ATOM     27  OG  SER A   5       5.893  -5.411  20.166  0.00  0.00    -0.393 OA
ATOM     28  H   SER A   5       6.355  -4.591  19.919  0.00  0.00    +0.209 HD
ENDBRANCH  26  27
ENDBRANCH  11  26
ENDBRANCH   8  11
ENDBRANCH   6   7
BRANCH   6  29
ATOM     29  CB  SER A   4       8.839  -4.808  25.703  0.00  0.00    +0.187 C 
BRANCH  29  30
ATOM     30  OG  SER A   4       9.129  -4.376  27.032  0.00  0.00    -0.393 OA
ATOM     31  H   SER A   4       9.822  -3.695  26.964  0.00  0.00    +0.209 HD
ENDBRANCH  29  30
ENDBRANCH   6  29
ENDBRANCH   4   6
ENDBRANCH   1   2
BRANCH   1  34
ATOM     32  C   LEU A   2       9.776   0.949  24.607  0.00  0.00    +0.234 C 
ATOM     33  O   LEU A   2      10.839   0.529  25.074  0.00  0.00    -0.274 OA
ATOM     34  N   GLN A   3       8.556   0.566  25.109  0.00  0.00    -0.302 N 
ATOM     35  H   GLN A   3       7.697   0.980  24.747  0.00  0.00    +0.150 HD
BRANCH  32  36
ATOM     36  CA  LEU A   2       9.714   1.957  23.434  0.00  0.00    +0.159 C 
BRANCH  36  38
ATOM     37  C   LYS A   1       9.144   0.283  21.699  0.00  0.00    +0.230 C 
ATOM     38  N   LEU A   2       8.813   1.400  22.428  0.00  0.00    -0.303 N 
ATOM     39  H   LEU A   2       7.831   1.624  22.547  0.00  0.00    +0.149 HD
ATOM     40  O   LYS A   1      10.270  -0.207  21.687  0.00  0.00    -0.274 OA
BRANCH  37  41
ATOM     41  CA  LYS A   1       7.967  -0.336  20.913  0.00  0.00    +0.138 C 
BRANCH  41  42
ATOM     42  N   LYS A   1       6.832  -0.547  21.827  0.00  0.00    -0.320 NA
ATOM     43  H1  LYS A   1       7.070  -0.170  22.746  0.00  0.00    +0.119 HD
ATOM     44  H2  LYS A   1       6.053   0.036  21.508  0.00  0.00    +0.119 HD
ENDBRANCH  41  42
BRANCH  41  45
ATOM     45  CB  LYS A   1       7.549   0.614  19.777  0.00  0.00    +0.028 C 
BRANCH  45  46
ATOM     46  CG  LYS A   1       6.791  -0.126  18.672  0.00  0.00    +0.007 C 
BRANCH  46  47
ATOM     47  CD  LYS A   1       5.367   0.394  18.474  0.00  0.00    +0.051 C 
BRANCH  47  48
ATOM     48  CE  LYS A   1       5.160   1.621  19.353  0.00  0.00    +0.127 C 
BRANCH  48  49
ATOM     49  NZ  LYS A   1       3.744   2.037  19.324  0.00  0.00    +0.219 N 
ATOM     50  HZ1 LYS A   1       3.113   1.234  19.217  0.00  0.00    +0.199 HD
ATOM     51  HZ2 LYS A   1       3.516   2.475  20.230  0.00  0.00    +0.199 HD
ATOM     52  HZ3 LYS A   1       3.548   2.713  18.576  0.00  0.00    +0.199 HD
ENDBRANCH  48  49
ENDBRANCH  47  48
ENDBRANCH  46  47
ENDBRANCH  45  46
ENDBRANCH  41  45
ENDBRANCH  37  41
ENDBRANCH  36  38
BRANCH  36  53
ATOM     53  CB  LEU A   2       9.226   3.333  23.902  0.00  0.00    +0.034 C 
BRANCH  53  54
ATOM     54  CG  LEU A   2      10.354   4.373  24.068  0.00  0.00    -0.015 C 
ATOM     55  CD2 LEU A   2       9.909   5.780  23.662  0.00  0.00    +0.007 C 
ATOM     56  CD1 LEU A   2      11.572   3.960  23.240  0.00  0.00    +0.007 C 
ENDBRANCH  53  54
ENDBRANCH  36  53
ENDBRANCH  32  36
ENDBRANCH   1  34
BRANCH   1  57
ATOM     57  CB  GLN A   3       7.207   0.060  27.107  0.00  0.00    +0.041 C 
BRANCH  57  58
ATOM     58  CG  GLN A   3       6.411   1.228  26.530  0.00  0.00    +0.098 C 
BRANCH  58  59
ATOM     59  CD  GLN A   3       5.182   0.707  25.805  0.00  0.00    +0.211 C 
ATOM     60  NE2 GLN A   3       5.408   0.295  24.526  0.00  0.00    -0.329 N 
ATOM     61 HE21 GLN A   3       4.645  -0.098  23.991  0.00  0.00    +0.145 HD
ATOM     62 HE22 GLN A   3       6.340   0.183  24.140  0.00  0.00    +0.145 HD
ATOM     63  OE1 GLN A   3       4.049   0.710  26.286  0.00  0.00    -0.276 OA
ENDBRANCH  58  59
ENDBRANCH  57  58
ENDBRANCH   1  57
TORSDOF 29
ENDMDL
MODEL 5
REMARK VINA RESULT:      -6.1      2.335      7.789
REMARK  Name = KLQSSQ-mmff94.pdb
REMARK  31 active torsions:
REMARK  status: ('A' for Active; 'I' for Inactive)
REMARK    1  A    between atoms: _1  and  _2
REMARK    2  A    between atoms: _2  and  _3
REMARK    3  A    between atoms: _2  and  _5
REMARK    4  A    between atoms: _5  and  _6
REMARK    5  A    between atoms: _6  and  _7
REMARK    6  A    between atoms: _7  and  _8
REMARK    7  A    between atoms: _8  and  _9
REMARK    8  A    between atoms: _23  and  _24
REMARK    9  A    between atoms: _24  and  _25
REMARK   10  A    between atoms: _24  and  _27
REMARK   11  A    between atoms: _27  and  _28
REMARK   12  A    between atoms: _28  and  _29
REMARK   13  A    between atoms: _28  and  _30
REMARK   14  A    between atoms: _42  and  _43
REMARK   15  A    between atoms: _43  and  _44
REMARK   16  A    between atoms: _43  and  _46
REMARK   17  A    between atoms: _46  and  _47
REMARK   18  A    between atoms: _47  and  _48
REMARK   19  A    between atoms: _59  and  _60
REMARK   20  A    between atoms: _60  and  _61
REMARK   21  A    between atoms: _60  and  _63
REMARK   22  A    between atoms: _63  and  _64
REMARK   23  A    between atoms: _70  and  _71
REMARK   24  A    between atoms: _71  and  _72
REMARK   25  A    between atoms: _71  and  _74
REMARK   26  A    between atoms: _74  and  _75
REMARK   27  A    between atoms: _81  and  _82
REMARK   28  A    between atoms: _82  and  _83
REMARK   29  A    between atoms: _82  and  _85
REMARK   30  A    between atoms: _85  and  _86
REMARK   31  A    between atoms: _86  and  _87
REMARK                            x       y       z     vdW  Elec       q    Type
REMARK                         _______ _______ _______ _____ _____    ______ ____
ROOT
ATOM      1  CA  GLN A   3       6.807  -1.137  21.049  0.00  0.00    +0.159 C 
ENDROOT
BRANCH   1   2
ATOM      2  C   GLN A   3       7.248   0.301  21.392  0.00  0.00    +0.234 C 
ATOM      3  O   GLN A   3       8.305   0.769  20.967  0.00  0.00    -0.274 OA
ATOM      4  N   SER A   4       6.418   1.013  22.214  0.00  0.00    -0.301 N 
ATOM      5  H   SER A   4       5.522   0.647  22.528  0.00  0.00    +0.150 HD
BRANCH   4   6
ATOM      6  CA  SER A   4       6.747   2.373  22.669  0.00  0.00    +0.184 C 
BRANCH   6   7
ATOM      7  C   SER A   4       7.312   2.268  24.099  0.00  0.00    +0.236 C 
ATOM      8  N   SER A   5       6.861   1.206  24.842  0.00  0.00    -0.300 N 
ATOM      9  H   SER A   5       6.303   0.469  24.413  0.00  0.00    +0.150 HD
ATOM     10  O   SER A   4       8.079   3.117  24.554  0.00  0.00    -0.274 OA
BRANCH   8  11
ATOM     11  CA  SER A   5       7.428   0.854  26.152  0.00  0.00    +0.184 C 
BRANCH  11  12
ATOM     12  C   SER A   5       8.335  -0.371  25.934  0.00  0.00    +0.236 C 
ATOM     13  N   GLN A   6       8.561  -0.729  24.628  0.00  0.00    -0.304 N 
ATOM     14  H   GLN A   6       8.193  -0.171  23.860  0.00  0.00    +0.149 HD
ATOM     15  O   SER A   5       8.794  -1.008  26.884  0.00  0.00    -0.274 OA
BRANCH  13  16
ATOM     16  CA  GLN A   6       9.476  -1.808  24.254  0.00  0.00    +0.136 C 
BRANCH  16  17
ATOM     17  C   GLN A   6      10.094  -1.403  22.919  0.00  0.00    +0.245 C 
ATOM     18  O   GLN A   6      11.045  -1.998  22.413  0.00  0.00    -0.299 OA
ENDBRANCH  16  17
BRANCH  16  19
ATOM     19  CB  GLN A   6       8.750  -3.152  24.143  0.00  0.00    +0.039 C 
BRANCH  19  20
ATOM     20  CG  GLN A   6       9.256  -4.181  25.156  0.00  0.00    +0.098 C 
BRANCH  20  21
ATOM     21  CD  GLN A   6       8.220  -5.200  25.579  0.00  0.00    +0.211 C 
ATOM     22  OE1 GLN A   6       7.244  -5.467  24.886  0.00  0.00    -0.276 OA
ATOM     23  NE2 GLN A   6       8.358  -5.752  26.815  0.00  0.00    -0.329 N 
ATOM     24 HE21 GLN A   6       9.176  -5.649  27.396  0.00  0.00    +0.145 HD
ATOM     25 HE22 GLN A   6       7.665  -6.438  27.088  0.00  0.00    +0.145 HD
ENDBRANCH  20  21
ENDBRANCH  19  20
ENDBRANCH  16  19
ENDBRANCH  13  16
ENDBRANCH  11  12
BRANCH  11  26
ATOM     26  CB  SER A   5       6.341   0.569  27.196  0.00  0.00    +0.187 C 
BRANCH  26  27
ATOM     27  OG  SER A   5       6.801   0.841  28.520  0.00  0.00    -0.393 OA
ATOM     28  H   SER A   5       6.890  -0.019  28.966  0.00  0.00    +0.209 HD
ENDBRANCH  26  27
ENDBRANCH  11  26
ENDBRANCH   8  11
ENDBRANCH   6   7
BRANCH   6  29
ATOM     29  CB  SER A   4       5.539   3.318  22.613  0.00  0.00    +0.187 C 
BRANCH  29  30
ATOM     30  OG  SER A   4       4.380   2.715  23.189  0.00  0.00    -0.393 OA
ATOM     31  H   SER A   4       3.637   3.325  23.035  0.00  0.00    +0.209 HD
ENDBRANCH  29  30
ENDBRANCH   6  29
ENDBRANCH   4   6
ENDBRANCH   1   2
BRANCH   1  34
ATOM     32  C   LEU A   2       5.690  -2.907  22.409  0.00  0.00    +0.234 C 
ATOM     33  O   LEU A   2       6.071  -3.808  21.657  0.00  0.00    -0.274 OA
ATOM     34  N   GLN A   3       6.009  -1.588  22.190  0.00  0.00    -0.302 N 
ATOM     35  H   GLN A   3       5.626  -0.859  22.791  0.00  0.00    +0.150 HD
BRANCH  32  36
ATOM     36  CA  LEU A   2       4.804  -3.168  23.651  0.00  0.00    +0.159 C 
BRANCH  36  38
ATOM     37  C   LYS A   1       3.584  -5.301  23.963  0.00  0.00    +0.230 C 
ATOM     38  N   LEU A   2       4.769  -4.612  23.866  0.00  0.00    -0.303 N 
ATOM     39  H   LEU A   2       5.598  -5.119  23.576  0.00  0.00    +0.149 HD
ATOM     40  O   LYS A   1       2.490  -4.753  24.076  0.00  0.00    -0.274 OA
BRANCH  37  41
ATOM     41  CA  LYS A   1       3.732  -6.837  23.884  0.00  0.00    +0.138 C 
BRANCH  41  42
ATOM     42  N   LYS A   1       5.109  -7.171  23.486  0.00  0.00    -0.320 NA
ATOM     43  H1  LYS A   1       5.087  -7.966  22.846  0.00  0.00    +0.119 HD
ATOM     44  H2  LYS A   1       5.473  -6.400  22.919  0.00  0.00    +0.119 HD
ENDBRANCH  41  42
BRANCH  41  45
ATOM     45  CB  LYS A   1       3.424  -7.456  25.258  0.00  0.00    +0.028 C 
BRANCH  45  46
ATOM     46  CG  LYS A   1       4.378  -6.937  26.338  0.00  0.00    +0.007 C 
BRANCH  46  47
ATOM     47  CD  LYS A   1       3.651  -6.281  27.511  0.00  0.00    +0.051 C 
BRANCH  47  48
ATOM     48  CE  LYS A   1       4.213  -6.833  28.814  0.00  0.00    +0.127 C 
BRANCH  48  49
ATOM     49  NZ  LYS A   1       5.520  -7.478  28.575  0.00  0.00    +0.219 N 
ATOM     50  HZ1 LYS A   1       5.564  -8.416  28.992  0.00  0.00    +0.199 HD
ATOM     51  HZ2 LYS A   1       5.640  -7.600  27.558  0.00  0.00    +0.199 HD
ATOM     52  HZ3 LYS A   1       6.305  -6.922  28.934  0.00  0.00    +0.199 HD
ENDBRANCH  48  49
ENDBRANCH  47  48
ENDBRANCH  46  47
ENDBRANCH  45  46
ENDBRANCH  41  45
ENDBRANCH  37  41
ENDBRANCH  36  38
BRANCH  36  53
ATOM     53  CB  LEU A   2       5.347  -2.445  24.889  0.00  0.00    +0.034 C 
BRANCH  53  54
ATOM     54  CG  LEU A   2       4.745  -2.946  26.220  0.00  0.00    -0.015 C 
ATOM     55  CD2 LEU A   2       3.657  -2.010  26.752  0.00  0.00    +0.007 C 
ATOM     56  CD1 LEU A   2       5.848  -3.100  27.268  0.00  0.00    +0.007 C 
ENDBRANCH  53  54
ENDBRANCH  36  53
ENDBRANCH  32  36
ENDBRANCH   1  34
BRANCH   1  57
ATOM     57  CB  GLN A   3       5.968  -1.176  19.762  0.00  0.00    +0.041 C 
BRANCH  57  58
ATOM     58  CG  GLN A   3       6.659  -0.526  18.565  0.00  0.00    +0.098 C 
BRANCH  58  59
ATOM     59  CD  GLN A   3       5.884   0.705  18.128  0.00  0.00    +0.211 C 
ATOM     60  NE2 GLN A   3       4.678   0.867  18.743  0.00  0.00    -0.329 N 
ATOM     61 HE21 GLN A   3       4.120   1.683  18.530  0.00  0.00    +0.145 HD
ATOM     62 HE22 GLN A   3       4.392   0.315  19.544  0.00  0.00    +0.145 HD
ATOM     63  OE1 GLN A   3       6.259   1.472  17.242  0.00  0.00    -0.276 OA
ENDBRANCH  58  59
ENDBRANCH  57  58
ENDBRANCH   1  57
TORSDOF 29
ENDMDL
MODEL 6
REMARK VINA RESULT:      -6.0      2.173      6.310
REMARK  Name = KLQSSQ-mmff94.pdb
REMARK  31 active torsions:
REMARK  status: ('A' for Active; 'I' for Inactive)
REMARK    1  A    between atoms: _1  and  _2
REMARK    2  A    between atoms: _2  and  _3
REMARK    3  A    between atoms: _2  and  _5
REMARK    4  A    between atoms: _5  and  _6
REMARK    5  A    between atoms: _6  and  _7
REMARK    6  A    between atoms: _7  and  _8
REMARK    7  A    between atoms: _8  and  _9
REMARK    8  A    between atoms: _23  and  _24
REMARK    9  A    between atoms: _24  and  _25
REMARK   10  A    between atoms: _24  and  _27
REMARK   11  A    between atoms: _27  and  _28
REMARK   12  A    between atoms: _28  and  _29
REMARK   13  A    between atoms: _28  and  _30
REMARK   14  A    between atoms: _42  and  _43
REMARK   15  A    between atoms: _43  and  _44
REMARK   16  A    between atoms: _43  and  _46
REMARK   17  A    between atoms: _46  and  _47
REMARK   18  A    between atoms: _47  and  _48
REMARK   19  A    between atoms: _59  and  _60
REMARK   20  A    between atoms: _60  and  _61
REMARK   21  A    between atoms: _60  and  _63
REMARK   22  A    between atoms: _63  and  _64
REMARK   23  A    between atoms: _70  and  _71
REMARK   24  A    between atoms: _71  and  _72
REMARK   25  A    between atoms: _71  and  _74
REMARK   26  A    between atoms: _74  and  _75
REMARK   27  A    between atoms: _81  and  _82
REMARK   28  A    between atoms: _82  and  _83
REMARK   29  A    between atoms: _82  and  _85
REMARK   30  A    between atoms: _85  and  _86
REMARK   31  A    between atoms: _86  and  _87
REMARK                            x       y       z     vdW  Elec       q    Type
REMARK                         _______ _______ _______ _____ _____    ______ ____
ROOT
ATOM      1  CA  GLN A   3       7.628   0.510  21.574  0.00  0.00    +0.159 C 
ENDROOT
BRANCH   1   2
ATOM      2  C   GLN A   3       7.181   1.455  22.710  0.00  0.00    +0.234 C 
ATOM      3  O   GLN A   3       7.634   2.596  22.813  0.00  0.00    -0.274 OA
ATOM      4  N   SER A   4       6.282   0.946  23.607  0.00  0.00    -0.301 N 
ATOM      5  H   SER A   4       5.871   0.022  23.497  0.00  0.00    +0.150 HD
BRANCH   4   6
ATOM      6  CA  SER A   4       5.818   1.717  24.771  0.00  0.00    +0.184 C 
BRANCH   6   7
ATOM      7  C   SER A   4       5.700   0.746  25.962  0.00  0.00    +0.236 C 
ATOM      8  N   SER A   5       4.825  -0.298  25.796  0.00  0.00    -0.300 N 
ATOM      9  H   SER A   5       4.402  -0.484  24.887  0.00  0.00    +0.150 HD
ATOM     10  O   SER A   4       6.316   0.934  27.012  0.00  0.00    -0.274 OA
BRANCH   8  11
ATOM     11  CA  SER A   5       4.724  -1.410  26.753  0.00  0.00    +0.184 C 
BRANCH  11  12
ATOM     12  C   SER A   5       4.573  -2.701  25.926  0.00  0.00    +0.236 C 
ATOM     13  N   GLN A   6       4.713  -3.879  26.617  0.00  0.00    -0.304 N 
ATOM     14  H   GLN A   6       4.846  -3.882  27.626  0.00  0.00    +0.149 HD
ATOM     15  O   SER A   5       4.378  -2.665  24.710  0.00  0.00    -0.274 OA
BRANCH  13  16
ATOM     16  CA  GLN A   6       4.501  -5.187  25.995  0.00  0.00    +0.136 C 
BRANCH  16  17
ATOM     17  C   GLN A   6       3.040  -5.547  26.241  0.00  0.00    +0.245 C 
ATOM     18  O   GLN A   6       2.595  -5.819  27.356  0.00  0.00    -0.299 OA
ENDBRANCH  16  17
BRANCH  16  19
ATOM     19  CB  GLN A   6       5.439  -6.248  26.579  0.00  0.00    +0.039 C 
BRANCH  19  20
ATOM     20  CG  GLN A   6       6.091  -5.803  27.889  0.00  0.00    +0.098 C 
BRANCH  20  21
ATOM     21  CD  GLN A   6       5.738  -6.663  29.084  0.00  0.00    +0.211 C 
ATOM     22  OE1 GLN A   6       6.463  -6.741  30.070  0.00  0.00    -0.276 OA
ATOM     23  NE2 GLN A   6       4.618  -7.430  28.989  0.00  0.00    -0.329 N 
ATOM     24 HE21 GLN A   6       3.933  -7.348  28.255  0.00  0.00    +0.145 HD
ATOM     25 HE22 GLN A   6       4.385  -7.997  29.795  0.00  0.00    +0.145 HD
ENDBRANCH  20  21
ENDBRANCH  19  20
ENDBRANCH  16  19
ENDBRANCH  13  16
ENDBRANCH  11  12
BRANCH  11  26
ATOM     26  CB  SER A   5       3.553  -1.229  27.727  0.00  0.00    +0.187 C 
BRANCH  26  27
ATOM     27  OG  SER A   5       2.387  -1.923  27.281  0.00  0.00    -0.393 OA
ATOM     28  H   SER A   5       2.241  -2.653  27.907  0.00  0.00    +0.209 HD
ENDBRANCH  26  27
ENDBRANCH  11  26
ENDBRANCH   8  11
ENDBRANCH   6   7
BRANCH   6  29
ATOM     29  CB  SER A   4       4.491   2.439  24.504  0.00  0.00    +0.187 C 
BRANCH  29  30
ATOM     30  OG  SER A   4       3.550   2.203  25.551  0.00  0.00    -0.393 OA
ATOM     31  H   SER A   4       3.342   3.067  25.946  0.00  0.00    +0.209 HD
ENDBRANCH  29  30
ENDBRANCH   6  29
ENDBRANCH   4   6
ENDBRANCH   1   2
BRANCH   1  34
ATOM     32  C   LEU A   2       8.124  -1.895  22.021  0.00  0.00    +0.234 C 
ATOM     33  O   LEU A   2       9.303  -1.776  21.678  0.00  0.00    -0.274 OA
ATOM     34  N   GLN A   3       7.249  -0.835  22.008  0.00  0.00    -0.302 N 
ATOM     35  H   GLN A   3       6.265  -0.978  22.234  0.00  0.00    +0.150 HD
BRANCH  32  36
ATOM     36  CA  LEU A   2       7.513  -3.242  22.476  0.00  0.00    +0.159 C 
BRANCH  36  38
ATOM     37  C   LYS A   1       8.284  -3.872  24.745  0.00  0.00    +0.230 C 
ATOM     38  N   LEU A   2       7.401  -3.201  23.931  0.00  0.00    -0.303 N 
ATOM     39  H   LEU A   2       6.910  -2.399  24.311  0.00  0.00    +0.149 HD
ATOM     40  O   LYS A   1       9.092  -4.697  24.329  0.00  0.00    -0.274 OA
BRANCH  37  41
ATOM     41  CA  LYS A   1       8.202  -3.475  26.235  0.00  0.00    +0.138 C 
BRANCH  41  42
ATOM     42  N   LYS A   1       9.251  -4.187  26.984  0.00  0.00    -0.320 NA
ATOM     43  H1  LYS A   1       9.485  -5.050  26.490  0.00  0.00    +0.119 HD
ATOM     44  H2  LYS A   1      10.108  -3.629  26.940  0.00  0.00    +0.119 HD
ENDBRANCH  41  42
BRANCH  41  45
ATOM     45  CB  LYS A   1       8.403  -1.956  26.376  0.00  0.00    +0.028 C 
BRANCH  45  46
ATOM     46  CG  LYS A   1       9.436  -1.429  25.377  0.00  0.00    +0.007 C 
BRANCH  46  47
ATOM     47  CD  LYS A   1       9.517   0.098  25.353  0.00  0.00    +0.051 C 
BRANCH  47  48
ATOM     48  CE  LYS A   1      10.518   0.524  24.287  0.00  0.00    +0.127 C 
BRANCH  48  49
ATOM     49  NZ  LYS A   1      10.411   1.976  24.036  0.00  0.00    +0.219 N 
ATOM     50  HZ1 LYS A   1      11.312   2.382  23.757  0.00  0.00    +0.199 HD
ATOM     51  HZ2 LYS A   1       9.763   2.122  23.246  0.00  0.00    +0.199 HD
ATOM     52  HZ3 LYS A   1      10.055   2.490  24.850  0.00  0.00    +0.199 HD
ENDBRANCH  48  49
ENDBRANCH  47  48
ENDBRANCH  46  47
ENDBRANCH  45  46
ENDBRANCH  41  45
ENDBRANCH  37  41
ENDBRANCH  36  38
BRANCH  36  53
ATOM     53  CB  LEU A   2       6.143  -3.483  21.829  0.00  0.00    +0.034 C 
BRANCH  53  54
ATOM     54  CG  LEU A   2       5.837  -4.970  21.549  0.00  0.00    -0.015 C 
ATOM     55  CD2 LEU A   2       4.899  -5.576  22.596  0.00  0.00    +0.007 C 
ATOM     56  CD1 LEU A   2       7.139  -5.772  21.501  0.00  0.00    +0.007 C 
ENDBRANCH  53  54
ENDBRANCH  36  53
ENDBRANCH  32  36
ENDBRANCH   1  34
BRANCH   1  57
ATOM     57  CB  GLN A   3       6.936   0.859  20.248  0.00  0.00    +0.041 C 
BRANCH  57  58
ATOM     58  CG  GLN A   3       7.376  -0.022  19.081  0.00  0.00    +0.098 C 
BRANCH  58  59
ATOM     59  CD  GLN A   3       6.160  -0.509  18.313  0.00  0.00    +0.211 C 
ATOM     60  NE2 GLN A   3       5.574  -1.628  18.826  0.00  0.00    -0.329 N 
ATOM     61 HE21 GLN A   3       4.737  -1.992  18.390  0.00  0.00    +0.145 HD
ATOM     62 HE22 GLN A   3       5.818  -2.010  19.733  0.00  0.00    +0.145 HD
ATOM     63  OE1 GLN A   3       5.755   0.006  17.271  0.00  0.00    -0.276 OA
ENDBRANCH  58  59
ENDBRANCH  57  58
ENDBRANCH   1  57
TORSDOF 29
ENDMDL
MODEL 7
REMARK VINA RESULT:      -6.0      2.193      6.982
REMARK  Name = KLQSSQ-mmff94.pdb
REMARK  31 active torsions:
REMARK  status: ('A' for Active; 'I' for Inactive)
REMARK    1  A    between atoms: _1  and  _2
REMARK    2  A    between atoms: _2  and  _3
REMARK    3  A    between atoms: _2  and  _5
REMARK    4  A    between atoms: _5  and  _6
REMARK    5  A    between atoms: _6  and  _7
REMARK    6  A    between atoms: _7  and  _8
REMARK    7  A    between atoms: _8  and  _9
REMARK    8  A    between atoms: _23  and  _24
REMARK    9  A    between atoms: _24  and  _25
REMARK   10  A    between atoms: _24  and  _27
REMARK   11  A    between atoms: _27  and  _28
REMARK   12  A    between atoms: _28  and  _29
REMARK   13  A    between atoms: _28  and  _30
REMARK   14  A    between atoms: _42  and  _43
REMARK   15  A    between atoms: _43  and  _44
REMARK   16  A    between atoms: _43  and  _46
REMARK   17  A    between atoms: _46  and  _47
REMARK   18  A    between atoms: _47  and  _48
REMARK   19  A    between atoms: _59  and  _60
REMARK   20  A    between atoms: _60  and  _61
REMARK   21  A    between atoms: _60  and  _63
REMARK   22  A    between atoms: _63  and  _64
REMARK   23  A    between atoms: _70  and  _71
REMARK   24  A    between atoms: _71  and  _72
REMARK   25  A    between atoms: _71  and  _74
REMARK   26  A    between atoms: _74  and  _75
REMARK   27  A    between atoms: _81  and  _82
REMARK   28  A    between atoms: _82  and  _83
REMARK   29  A    between atoms: _82  and  _85
REMARK   30  A    between atoms: _85  and  _86
REMARK   31  A    between atoms: _86  and  _87
REMARK                            x       y       z     vdW  Elec       q    Type
REMARK                         _______ _______ _______ _____ _____    ______ ____
ROOT
ATOM      1  CA  GLN A   3       4.059  -3.245  26.621  0.00  0.00    +0.159 C 
ENDROOT
BRANCH   1   2
ATOM      2  C   GLN A   3       4.081  -1.711  26.796  0.00  0.00    +0.234 C 
ATOM      3  O   GLN A   3       3.081  -1.025  26.583  0.00  0.00    -0.274 OA
ATOM      4  N   SER A   4       5.276  -1.159  27.168  0.00  0.00    -0.301 N 
ATOM      5  H   SER A   4       6.090  -1.727  27.391  0.00  0.00    +0.150 HD
BRANCH   4   6
ATOM      6  CA  SER A   4       5.454   0.295  27.311  0.00  0.00    +0.184 C 
BRANCH   6   7
ATOM      7  C   SER A   4       5.847   0.859  25.933  0.00  0.00    +0.236 C 
ATOM      8  N   SER A   5       5.833   2.227  25.821  0.00  0.00    -0.300 N 
ATOM      9  H   SER A   5       5.709   2.815  26.645  0.00  0.00    +0.150 HD
ATOM     10  O   SER A   4       6.105   0.120  24.981  0.00  0.00    -0.274 OA
BRANCH   8  11
ATOM     11  CA  SER A   5       6.350   2.934  24.640  0.00  0.00    +0.184 C 
BRANCH  11  12
ATOM     12  C   SER A   5       7.880   3.009  24.797  0.00  0.00    +0.236 C 
ATOM     13  N   GLN A   6       8.598   2.003  24.199  0.00  0.00    -0.304 N 
ATOM     14  H   GLN A   6       8.134   1.291  23.637  0.00  0.00    +0.149 HD
ATOM     15  O   SER A   5       8.416   3.902  25.456  0.00  0.00    -0.274 OA
BRANCH  13  16
ATOM     16  CA  GLN A   6      10.060   1.985  24.174  0.00  0.00    +0.136 C 
BRANCH  16  17
ATOM     17  C   GLN A   6      10.467   2.155  22.714  0.00  0.00    +0.245 C 
ATOM     18  O   GLN A   6       9.884   1.593  21.786  0.00  0.00    -0.299 OA
ENDBRANCH  16  17
BRANCH  16  19
ATOM     19  CB  GLN A   6      10.620   0.683  24.756  0.00  0.00    +0.039 C 
BRANCH  19  20
ATOM     20  CG  GLN A   6       9.533  -0.362  25.015  0.00  0.00    +0.098 C 
BRANCH  20  21
ATOM     21  CD  GLN A   6       9.626  -1.588  24.131  0.00  0.00    +0.211 C 
ATOM     22  OE1 GLN A   6       9.708  -1.509  22.910  0.00  0.00    -0.276 OA
ATOM     23  NE2 GLN A   6       9.519  -2.801  24.737  0.00  0.00    -0.329 N 
ATOM     24 HE21 GLN A   6       9.541  -2.942  25.735  0.00  0.00    +0.145 HD
ATOM     25 HE22 GLN A   6       9.589  -3.617  24.141  0.00  0.00    +0.145 HD
ENDBRANCH  20  21
ENDBRANCH  19  20
ENDBRANCH  16  19
ENDBRANCH  13  16
ENDBRANCH  11  12
BRANCH  11  26
ATOM     26  CB  SER A   5       5.734   4.330  24.486  0.00  0.00    +0.187 C 
BRANCH  26  27
ATOM     27  OG  SER A   5       6.564   5.186  23.700  0.00  0.00    -0.393 OA
ATOM     28  H   SER A   5       6.046   5.430  22.913  0.00  0.00    +0.209 HD
ENDBRANCH  26  27
ENDBRANCH  11  26
ENDBRANCH   8  11
ENDBRANCH   6   7
BRANCH   6  29
ATOM     29  CB  SER A   4       6.494   0.656  28.381  0.00  0.00    +0.187 C 
BRANCH  29  30
ATOM     30  OG  SER A   4       7.731   1.053  27.791  0.00  0.00    -0.393 OA
ATOM     31  H   SER A   4       8.433   0.552  28.241  0.00  0.00    +0.209 HD
ENDBRANCH  29  30
ENDBRANCH   6  29
ENDBRANCH   4   6
ENDBRANCH   1   2
BRANCH   1  34
ATOM     32  C   LEU A   2       5.787  -3.348  24.824  0.00  0.00    +0.234 C 
ATOM     33  O   LEU A   2       6.691  -3.012  25.593  0.00  0.00    -0.274 OA
ATOM     34  N   GLN A   3       4.486  -3.492  25.244  0.00  0.00    -0.302 N 
ATOM     35  H   GLN A   3       3.749  -3.707  24.573  0.00  0.00    +0.150 HD
BRANCH  32  36
ATOM     36  CA  LEU A   2       6.022  -3.619  23.318  0.00  0.00    +0.159 C 
BRANCH  36  38
ATOM     37  C   LYS A   1       6.252  -1.983  21.471  0.00  0.00    +0.230 C 
ATOM     38  N   LEU A   2       6.583  -2.401  22.739  0.00  0.00    -0.303 N 
ATOM     39  H   LEU A   2       6.909  -1.709  23.404  0.00  0.00    +0.149 HD
ATOM     40  O   LYS A   1       5.635  -2.680  20.670  0.00  0.00    -0.274 OA
BRANCH  37  41
ATOM     41  CA  LYS A   1       6.691  -0.540  21.143  0.00  0.00    +0.138 C 
BRANCH  41  42
ATOM     42  N   LYS A   1       7.176   0.111  22.370  0.00  0.00    -0.320 NA
ATOM     43  H1  LYS A   1       6.469   0.015  23.100  0.00  0.00    +0.119 HD
ATOM     44  H2  LYS A   1       7.975  -0.425  22.721  0.00  0.00    +0.119 HD
ENDBRANCH  41  42
BRANCH  41  45
ATOM     45  CB  LYS A   1       7.814  -0.569  20.092  0.00  0.00    +0.028 C 
BRANCH  45  46
ATOM     46  CG  LYS A   1       7.463   0.278  18.866  0.00  0.00    +0.007 C 
BRANCH  46  47
ATOM     47  CD  LYS A   1       6.039   0.042  18.366  0.00  0.00    +0.051 C 
BRANCH  47  48
ATOM     48  CE  LYS A   1       5.370   1.388  18.120  0.00  0.00    +0.127 C 
BRANCH  48  49
ATOM     49  NZ  LYS A   1       4.464   1.722  19.238  0.00  0.00    +0.219 N 
ATOM     50  HZ1 LYS A   1       4.538   2.711  19.505  0.00  0.00    +0.199 HD
ATOM     51  HZ2 LYS A   1       3.492   1.571  18.924  0.00  0.00    +0.199 HD
ATOM     52  HZ3 LYS A   1       4.634   1.142  20.068  0.00  0.00    +0.199 HD
ENDBRANCH  48  49
ENDBRANCH  47  48
ENDBRANCH  46  47
ENDBRANCH  45  46
ENDBRANCH  41  45
ENDBRANCH  37  41
ENDBRANCH  36  38
BRANCH  36  53
ATOM     53  CB  LEU A   2       6.964  -4.809  23.103  0.00  0.00    +0.034 C 
BRANCH  53  54
ATOM     54  CG  LEU A   2       6.293  -6.023  22.425  0.00  0.00    -0.015 C 
ATOM     55  CD2 LEU A   2       6.385  -5.960  20.899  0.00  0.00    +0.007 C 
ATOM     56  CD1 LEU A   2       4.825  -6.113  22.848  0.00  0.00    +0.007 C 
ENDBRANCH  53  54
ENDBRANCH  36  53
ENDBRANCH  32  36
ENDBRANCH   1  34
BRANCH   1  57
ATOM     57  CB  GLN A   3       5.012  -3.936  27.609  0.00  0.00    +0.041 C 
BRANCH  57  58
ATOM     58  CG  GLN A   3       4.471  -5.256  28.154  0.00  0.00    +0.098 C 
BRANCH  58  59
ATOM     59  CD  GLN A   3       5.240  -6.418  27.552  0.00  0.00    +0.211 C 
ATOM     60  NE2 GLN A   3       5.525  -7.426  28.425  0.00  0.00    -0.329 N 
ATOM     61 HE21 GLN A   3       6.004  -8.251  28.088  0.00  0.00    +0.145 HD
ATOM     62 HE22 GLN A   3       5.116  -7.482  29.351  0.00  0.00    +0.145 HD
ATOM     63  OE1 GLN A   3       5.647  -6.443  26.390  0.00  0.00    -0.276 OA
ENDBRANCH  58  59
ENDBRANCH  57  58
ENDBRANCH   1  57
TORSDOF 29
ENDMDL
MODEL 8
REMARK VINA RESULT:      -6.0      2.014      5.583
REMARK  Name = KLQSSQ-mmff94.pdb
REMARK  31 active torsions:
REMARK  status: ('A' for Active; 'I' for Inactive)
REMARK    1  A    between atoms: _1  and  _2
REMARK    2  A    between atoms: _2  and  _3
REMARK    3  A    between atoms: _2  and  _5
REMARK    4  A    between atoms: _5  and  _6
REMARK    5  A    between atoms: _6  and  _7
REMARK    6  A    between atoms: _7  and  _8
REMARK    7  A    between atoms: _8  and  _9
REMARK    8  A    between atoms: _23  and  _24
REMARK    9  A    between atoms: _24  and  _25
REMARK   10  A    between atoms: _24  and  _27
REMARK   11  A    between atoms: _27  and  _28
REMARK   12  A    between atoms: _28  and  _29
REMARK   13  A    between atoms: _28  and  _30
REMARK   14  A    between atoms: _42  and  _43
REMARK   15  A    between atoms: _43  and  _44
REMARK   16  A    between atoms: _43  and  _46
REMARK   17  A    between atoms: _46  and  _47
REMARK   18  A    between atoms: _47  and  _48
REMARK   19  A    between atoms: _59  and  _60
REMARK   20  A    between atoms: _60  and  _61
REMARK   21  A    between atoms: _60  and  _63
REMARK   22  A    between atoms: _63  and  _64
REMARK   23  A    between atoms: _70  and  _71
REMARK   24  A    between atoms: _71  and  _72
REMARK   25  A    between atoms: _71  and  _74
REMARK   26  A    between atoms: _74  and  _75
REMARK   27  A    between atoms: _81  and  _82
REMARK   28  A    between atoms: _82  and  _83
REMARK   29  A    between atoms: _82  and  _85
REMARK   30  A    between atoms: _85  and  _86
REMARK   31  A    between atoms: _86  and  _87
REMARK                            x       y       z     vdW  Elec       q    Type
REMARK                         _______ _______ _______ _____ _____    ______ ____
ROOT
ATOM      1  CA  GLN A   3       5.919  -5.242  23.071  0.00  0.00    +0.159 C 
ENDROOT
BRANCH   1   2
ATOM      2  C   GLN A   3       4.428  -5.422  23.427  0.00  0.00    +0.234 C 
ATOM      3  O   GLN A   3       3.565  -4.664  22.983  0.00  0.00    -0.274 OA
ATOM      4  N   SER A   4       4.125  -6.446  24.283  0.00  0.00    -0.301 N 
ATOM      5  H   SER A   4       4.829  -7.102  24.613  0.00  0.00    +0.150 HD
BRANCH   4   6
ATOM      6  CA  SER A   4       2.752  -6.692  24.752  0.00  0.00    +0.184 C 
BRANCH   6   7
ATOM      7  C   SER A   4       2.753  -6.580  26.288  0.00  0.00    +0.236 C 
ATOM      8  N   SER A   5       3.988  -6.481  26.879  0.00  0.00    -0.300 N 
ATOM      9  H   SER A   5       4.826  -6.347  26.315  0.00  0.00    +0.150 HD
ATOM     10  O   SER A   4       1.708  -6.630  26.940  0.00  0.00    -0.274 OA
BRANCH   8  11
ATOM     11  CA  SER A   5       4.164  -6.188  28.309  0.00  0.00    +0.184 C 
BRANCH  11  12
ATOM     12  C   SER A   5       4.217  -4.655  28.450  0.00  0.00    +0.236 C 
ATOM     13  N   GLN A   6       4.666  -3.964  27.352  0.00  0.00    -0.304 N 
ATOM     14  H   GLN A   6       4.889  -4.447  26.484  0.00  0.00    +0.149 HD
ATOM     15  O   SER A   5       3.908  -4.096  29.504  0.00  0.00    -0.274 OA
BRANCH  13  16
ATOM     16  CA  GLN A   6       4.682  -2.503  27.293  0.00  0.00    +0.136 C 
BRANCH  16  17
ATOM     17  C   GLN A   6       3.599  -2.101  26.298  0.00  0.00    +0.245 C 
ATOM     18  O   GLN A   6       2.867  -2.918  25.738  0.00  0.00    -0.299 OA
ENDBRANCH  16  17
BRANCH  16  19
ATOM     19  CB  GLN A   6       6.053  -1.969  26.865  0.00  0.00    +0.039 C 
BRANCH  19  20
ATOM     20  CG  GLN A   6       6.190  -0.460  27.074  0.00  0.00    +0.098 C 
BRANCH  20  21
ATOM     21  CD  GLN A   6       7.573  -0.012  27.495  0.00  0.00    +0.211 C 
ATOM     22  OE1 GLN A   6       8.583  -0.644  27.201  0.00  0.00    -0.276 OA
ATOM     23  NE2 GLN A   6       7.655   1.080  28.302  0.00  0.00    -0.329 N 
ATOM     24 HE21 GLN A   6       6.883   1.695  28.507  0.00  0.00    +0.145 HD
ATOM     25 HE22 GLN A   6       8.585   1.378  28.574  0.00  0.00    +0.145 HD
ENDBRANCH  20  21
ENDBRANCH  19  20
ENDBRANCH  16  19
ENDBRANCH  13  16
ENDBRANCH  11  12
BRANCH  11  26
ATOM     26  CB  SER A   5       5.423  -6.848  28.885  0.00  0.00    +0.187 C 
BRANCH  26  27
ATOM     27  OG  SER A   5       6.487  -5.907  29.032  0.00  0.00    -0.393 OA
ATOM     28  H   SER A   5       6.788  -5.683  28.134  0.00  0.00    +0.209 HD
ENDBRANCH  26  27
ENDBRANCH  11  26
ENDBRANCH   8  11
ENDBRANCH   6   7
BRANCH   6  29
ATOM     29  CB  SER A   4       2.210  -8.052  24.290  0.00  0.00    +0.187 C 
BRANCH  29  30
ATOM     30  OG  SER A   4       2.526  -9.083  25.225  0.00  0.00    -0.393 OA
ATOM     31  H   SER A   4       1.738  -9.648  25.300  0.00  0.00    +0.209 HD
ENDBRANCH  29  30
ENDBRANCH   6  29
ENDBRANCH   4   6
ENDBRANCH   1   2
BRANCH   1  34
ATOM     32  C   LEU A   2       6.033  -3.340  21.461  0.00  0.00    +0.234 C 
ATOM     33  O   LEU A   2       5.837  -4.073  20.489  0.00  0.00    -0.274 OA
ATOM     34  N   GLN A   3       6.079  -3.825  22.746  0.00  0.00    -0.302 N 
ATOM     35  H   GLN A   3       6.308  -3.205  23.522  0.00  0.00    +0.150 HD
BRANCH  32  36
ATOM     36  CA  LEU A   2       6.266  -1.815  21.329  0.00  0.00    +0.159 C 
BRANCH  36  38
ATOM     37  C   LYS A   1       8.121  -1.312  22.893  0.00  0.00    +0.230 C 
ATOM     38  N   LEU A   2       7.676  -1.563  21.616  0.00  0.00    -0.303 N 
ATOM     39  H   LEU A   2       8.335  -1.935  20.941  0.00  0.00    +0.149 HD
ATOM     40  O   LYS A   1       7.370  -1.086  23.838  0.00  0.00    -0.274 OA
BRANCH  37  41
ATOM     41  CA  LYS A   1       9.656  -1.372  23.054  0.00  0.00    +0.138 C 
BRANCH  41  42
ATOM     42  N   LYS A   1      10.292  -0.991  21.783  0.00  0.00    -0.320 NA
ATOM     43  H1  LYS A   1      10.082  -0.011  21.586  0.00  0.00    +0.119 HD
ATOM     44  H2  LYS A   1      11.307  -1.010  21.917  0.00  0.00    +0.119 HD
ENDBRANCH  41  42
BRANCH  41  45
ATOM     45  CB  LYS A   1      10.095  -0.403  24.166  0.00  0.00    +0.028 C 
BRANCH  45  46
ATOM     46  CG  LYS A   1      10.382   0.996  23.614  0.00  0.00    +0.007 C 
BRANCH  46  47
ATOM     47  CD  LYS A   1       9.294   2.011  23.964  0.00  0.00    +0.051 C 
BRANCH  47  48
ATOM     48  CE  LYS A   1       8.825   2.696  22.687  0.00  0.00    +0.127 C 
BRANCH  48  49
ATOM     49  NZ  LYS A   1       9.316   1.962  21.503  0.00  0.00    +0.219 N 
ATOM     50  HZ1 LYS A   1       8.955   2.364  20.629  0.00  0.00    +0.199 HD
ATOM     51  HZ2 LYS A   1      10.343   2.052  21.468  0.00  0.00    +0.199 HD
ATOM     52  HZ3 LYS A   1       9.076   0.964  21.531  0.00  0.00    +0.199 HD
ENDBRANCH  48  49
ENDBRANCH  47  48
ENDBRANCH  46  47
ENDBRANCH  45  46
ENDBRANCH  41  45
ENDBRANCH  37  41
ENDBRANCH  36  38
BRANCH  36  53
ATOM     53  CB  LEU A   2       5.896  -1.311  19.929  0.00  0.00    +0.034 C 
BRANCH  53  54
ATOM     54  CG  LEU A   2       6.318   0.150  19.659  0.00  0.00    -0.015 C 
ATOM     55  CD2 LEU A   2       5.186   0.976  19.045  0.00  0.00    +0.007 C 
ATOM     56  CD1 LEU A   2       7.536   0.179  18.733  0.00  0.00    +0.007 C 
ENDBRANCH  53  54
ENDBRANCH  36  53
ENDBRANCH  32  36
ENDBRANCH   1  34
BRANCH   1  57
ATOM     57  CB  GLN A   3       6.827  -5.626  24.250  0.00  0.00    +0.041 C 
BRANCH  57  58
ATOM     58  CG  GLN A   3       7.931  -4.607  24.524  0.00  0.00    +0.098 C 
BRANCH  58  59
ATOM     59  CD  GLN A   3       8.672  -4.978  25.797  0.00  0.00    +0.211 C 
ATOM     60  NE2 GLN A   3       9.865  -5.607  25.599  0.00  0.00    -0.329 N 
ATOM     61 HE21 GLN A   3      10.433  -5.852  26.399  0.00  0.00    +0.145 HD
ATOM     62 HE22 GLN A   3      10.307  -5.673  24.689  0.00  0.00    +0.145 HD
ATOM     63  OE1 GLN A   3       8.222  -4.799  26.929  0.00  0.00    -0.276 OA
ENDBRANCH  58  59
ENDBRANCH  57  58
ENDBRANCH   1  57
TORSDOF 29
ENDMDL
MODEL 9
REMARK VINA RESULT:      -6.0      1.512      3.294
REMARK  Name = KLQSSQ-mmff94.pdb
REMARK  31 active torsions:
REMARK  status: ('A' for Active; 'I' for Inactive)
REMARK    1  A    between atoms: _1  and  _2
REMARK    2  A    between atoms: _2  and  _3
REMARK    3  A    between atoms: _2  and  _5
REMARK    4  A    between atoms: _5  and  _6
REMARK    5  A    between atoms: _6  and  _7
REMARK    6  A    between atoms: _7  and  _8
REMARK    7  A    between atoms: _8  and  _9
REMARK    8  A    between atoms: _23  and  _24
REMARK    9  A    between atoms: _24  and  _25
REMARK   10  A    between atoms: _24  and  _27
REMARK   11  A    between atoms: _27  and  _28
REMARK   12  A    between atoms: _28  and  _29
REMARK   13  A    between atoms: _28  and  _30
REMARK   14  A    between atoms: _42  and  _43
REMARK   15  A    between atoms: _43  and  _44
REMARK   16  A    between atoms: _43  and  _46
REMARK   17  A    between atoms: _46  and  _47
REMARK   18  A    between atoms: _47  and  _48
REMARK   19  A    between atoms: _59  and  _60
REMARK   20  A    between atoms: _60  and  _61
REMARK   21  A    between atoms: _60  and  _63
REMARK   22  A    between atoms: _63  and  _64
REMARK   23  A    between atoms: _70  and  _71
REMARK   24  A    between atoms: _71  and  _72
REMARK   25  A    between atoms: _71  and  _74
REMARK   26  A    between atoms: _74  and  _75
REMARK   27  A    between atoms: _81  and  _82
REMARK   28  A    between atoms: _82  and  _83
REMARK   29  A    between atoms: _82  and  _85
REMARK   30  A    between atoms: _85  and  _86
REMARK   31  A    between atoms: _86  and  _87
REMARK                            x       y       z     vdW  Elec       q    Type
REMARK                         _______ _______ _______ _____ _____    ______ ____
ROOT
ATOM      1  CA  GLN A   3       8.664  -0.326  25.955  0.00  0.00    +0.159 C 
ENDROOT
BRANCH   1   2
ATOM      2  C   GLN A   3       8.299  -1.825  25.895  0.00  0.00    +0.234 C 
ATOM      3  O   GLN A   3       7.377  -2.290  26.566  0.00  0.00    -0.274 OA
ATOM      4  N   SER A   4       9.074  -2.608  25.084  0.00  0.00    -0.301 N 
ATOM      5  H   SER A   4       9.805  -2.219  24.492  0.00  0.00    +0.150 HD
BRANCH   4   6
ATOM      6  CA  SER A   4       8.875  -4.062  24.980  0.00  0.00    +0.184 C 
BRANCH   6   7
ATOM      7  C   SER A   4       7.590  -4.304  24.166  0.00  0.00    +0.236 C 
ATOM      8  N   SER A   5       6.470  -4.616  24.897  0.00  0.00    -0.300 N 
ATOM      9  H   SER A   5       6.476  -4.545  25.914  0.00  0.00    +0.150 HD
ATOM     10  O   SER A   4       7.589  -4.270  22.934  0.00  0.00    -0.274 OA
BRANCH   8  11
ATOM     11  CA  SER A   5       5.129  -4.701  24.300  0.00  0.00    +0.184 C 
BRANCH  11  12
ATOM     12  C   SER A   5       4.120  -4.715  25.463  0.00  0.00    +0.236 C 
ATOM     13  N   GLN A   6       4.511  -4.065  26.608  0.00  0.00    -0.304 N 
ATOM     14  H   GLN A   6       5.392  -3.557  26.647  0.00  0.00    +0.149 HD
ATOM     15  O   SER A   5       3.045  -5.311  25.374  0.00  0.00    -0.274 OA
BRANCH  13  16
ATOM     16  CA  GLN A   6       3.627  -3.905  27.763  0.00  0.00    +0.136 C 
BRANCH  16  17
ATOM     17  C   GLN A   6       3.717  -2.439  28.173  0.00  0.00    +0.245 C 
ATOM     18  O   GLN A   6       4.570  -1.669  27.728  0.00  0.00    -0.299 OA
ENDBRANCH  16  17
BRANCH  16  19
ATOM     19  CB  GLN A   6       4.033  -4.828  28.917  0.00  0.00    +0.039 C 
BRANCH  19  20
ATOM     20  CG  GLN A   6       5.547  -5.034  29.002  0.00  0.00    +0.098 C 
BRANCH  20  21
ATOM     21  CD  GLN A   6       6.022  -6.381  28.500  0.00  0.00    +0.211 C 
ATOM     22  OE1 GLN A   6       5.964  -6.694  27.316  0.00  0.00    -0.276 OA
ATOM     23  NE2 GLN A   6       6.434  -7.281  29.433  0.00  0.00    -0.329 N 
ATOM     24 HE21 GLN A   6       6.593  -7.063  30.404  0.00  0.00    +0.145 HD
ATOM     25 HE22 GLN A   6       6.757  -8.178  29.089  0.00  0.00    +0.145 HD
ENDBRANCH  20  21
ENDBRANCH  19  20
ENDBRANCH  16  19
ENDBRANCH  13  16
ENDBRANCH  11  12
BRANCH  11  26
ATOM     26  CB  SER A   5       4.972  -5.938  23.406  0.00  0.00    +0.187 C 
BRANCH  26  27
ATOM     27  OG  SER A   5       5.065  -5.600  22.021  0.00  0.00    -0.393 OA
ATOM     28  H   SER A   5       4.441  -6.180  21.551  0.00  0.00    +0.209 HD
ENDBRANCH  26  27
ENDBRANCH  11  26
ENDBRANCH   8  11
ENDBRANCH   6   7
BRANCH   6  29
ATOM     29  CB  SER A   4       8.804  -4.743  26.354  0.00  0.00    +0.187 C 
BRANCH  29  30
ATOM     30  OG  SER A   4       8.651  -6.157  26.227  0.00  0.00    -0.393 OA
ATOM     31  H   SER A   4       8.572  -6.516  27.128  0.00  0.00    +0.209 HD
ENDBRANCH  29  30
ENDBRANCH   6  29
ENDBRANCH   4   6
ENDBRANCH   1   2
BRANCH   1  34
ATOM     32  C   LEU A   2      10.154   0.509  24.136  0.00  0.00    +0.234 C 
ATOM     33  O   LEU A   2      11.129   0.583  24.888  0.00  0.00    -0.274 OA
ATOM     34  N   GLN A   3       8.926   0.072  24.571  0.00  0.00    -0.302 N 
ATOM     35  H   GLN A   3       8.123   0.084  23.943  0.00  0.00    +0.150 HD
BRANCH  32  36
ATOM     36  CA  LEU A   2      10.210   0.920  22.644  0.00  0.00    +0.159 C 
BRANCH  36  38
ATOM     37  C   LYS A   1       8.782  -0.915  21.790  0.00  0.00    +0.230 C 
ATOM     38  N   LEU A   2       8.991   0.426  22.009  0.00  0.00    -0.303 N 
ATOM     39  H   LEU A   2       8.183   1.035  22.078  0.00  0.00    +0.149 HD
ATOM     40  O   LYS A   1       9.658  -1.766  21.920  0.00  0.00    -0.274 OA
BRANCH  37  41
ATOM     41  CA  LYS A   1       7.333  -1.276  21.395  0.00  0.00    +0.138 C 
BRANCH  41  42
ATOM     42  N   LYS A   1       6.503  -1.344  22.609  0.00  0.00    -0.320 NA
ATOM     43  H1  LYS A   1       5.545  -1.577  22.345  0.00  0.00    +0.119 HD
ATOM     44  H2  LYS A   1       6.815  -2.146  23.164  0.00  0.00    +0.119 HD
ENDBRANCH  41  42
BRANCH  41  45
ATOM     45  CB  LYS A   1       6.775  -0.203  20.444  0.00  0.00    +0.028 C 
BRANCH  45  46
ATOM     46  CG  LYS A   1       6.044  -0.830  19.254  0.00  0.00    +0.007 C 
BRANCH  46  47
ATOM     47  CD  LYS A   1       5.495   0.209  18.277  0.00  0.00    +0.051 C 
BRANCH  47  48
ATOM     48  CE  LYS A   1       5.309   1.531  19.011  0.00  0.00    +0.127 C 
BRANCH  48  49
ATOM     49  NZ  LYS A   1       3.879   1.756  19.306  0.00  0.00    +0.219 N 
ATOM     50  HZ1 LYS A   1       3.742   2.155  20.243  0.00  0.00    +0.199 HD
ATOM     51  HZ2 LYS A   1       3.513   2.447  18.633  0.00  0.00    +0.199 HD
ATOM     52  HZ3 LYS A   1       3.322   0.897  19.229  0.00  0.00    +0.199 HD
ENDBRANCH  48  49
ENDBRANCH  47  48
ENDBRANCH  46  47
ENDBRANCH  45  46
ENDBRANCH  41  45
ENDBRANCH  37  41
ENDBRANCH  36  38
BRANCH  36  53
ATOM     53  CB  LEU A   2      10.330   2.441  22.486  0.00  0.00    +0.034 C 
BRANCH  53  54
ATOM     54  CG  LEU A   2       9.407   3.242  23.430  0.00  0.00    -0.015 C 
ATOM     55  CD2 LEU A   2       8.067   3.585  22.776  0.00  0.00    +0.007 C 
ATOM     56  CD1 LEU A   2      10.106   4.528  23.876  0.00  0.00    +0.007 C 
ENDBRANCH  53  54
ENDBRANCH  36  53
ENDBRANCH  32  36
ENDBRANCH   1  34
BRANCH   1  57
ATOM     57  CB  GLN A   3       7.515   0.508  26.541  0.00  0.00    +0.041 C 
BRANCH  57  58
ATOM     58  CG  GLN A   3       6.795   1.367  25.504  0.00  0.00    +0.098 C 
BRANCH  58  59
ATOM     59  CD  GLN A   3       5.375   0.864  25.313  0.00  0.00    +0.211 C 
ATOM     60  NE2 GLN A   3       5.252  -0.493  25.273  0.00  0.00    -0.329 N 
ATOM     61 HE21 GLN A   3       4.332  -0.904  25.185  0.00  0.00    +0.145 HD
ATOM     62 HE22 GLN A   3       6.010  -1.121  25.519  0.00  0.00    +0.145 HD
ATOM     63  OE1 GLN A   3       4.404   1.600  25.135  0.00  0.00    -0.276 OA
ENDBRANCH  58  59
ENDBRANCH  57  58
ENDBRANCH   1  57
TORSDOF 29
ENDMDL
MODEL 10
REMARK VINA RESULT:      -6.0      2.463      7.680
REMARK  Name = KLQSSQ-mmff94.pdb
REMARK  31 active torsions:
REMARK  status: ('A' for Active; 'I' for Inactive)
REMARK    1  A    between atoms: _1  and  _2
REMARK    2  A    between atoms: _2  and  _3
REMARK    3  A    between atoms: _2  and  _5
REMARK    4  A    between atoms: _5  and  _6
REMARK    5  A    between atoms: _6  and  _7
REMARK    6  A    between atoms: _7  and  _8
REMARK    7  A    between atoms: _8  and  _9
REMARK    8  A    between atoms: _23  and  _24
REMARK    9  A    between atoms: _24  and  _25
REMARK   10  A    between atoms: _24  and  _27
REMARK   11  A    between atoms: _27  and  _28
REMARK   12  A    between atoms: _28  and  _29
REMARK   13  A    between atoms: _28  and  _30
REMARK   14  A    between atoms: _42  and  _43
REMARK   15  A    between atoms: _43  and  _44
REMARK   16  A    between atoms: _43  and  _46
REMARK   17  A    between atoms: _46  and  _47
REMARK   18  A    between atoms: _47  and  _48
REMARK   19  A    between atoms: _59  and  _60
REMARK   20  A    between atoms: _60  and  _61
REMARK   21  A    between atoms: _60  and  _63
REMARK   22  A    between atoms: _63  and  _64
REMARK   23  A    between atoms: _70  and  _71
REMARK   24  A    between atoms: _71  and  _72
REMARK   25  A    between atoms: _71  and  _74
REMARK   26  A    between atoms: _74  and  _75
REMARK   27  A    between atoms: _81  and  _82
REMARK   28  A    between atoms: _82  and  _83
REMARK   29  A    between atoms: _82  and  _85
REMARK   30  A    between atoms: _85  and  _86
REMARK   31  A    between atoms: _86  and  _87
REMARK                            x       y       z     vdW  Elec       q    Type
REMARK                         _______ _______ _______ _____ _____    ______ ____
ROOT
ATOM      1  CA  GLN A   3       9.800   0.518  22.351  0.00  0.00    +0.159 C 
ENDROOT
BRANCH   1   2
ATOM      2  C   GLN A   3      10.479   1.577  23.245  0.00  0.00    +0.234 C 
ATOM      3  O   GLN A   3      10.785   1.333  24.412  0.00  0.00    -0.274 OA
ATOM      4  N   SER A   4      10.692   2.804  22.679  0.00  0.00    -0.301 N 
ATOM      5  H   SER A   4      10.484   2.994  21.702  0.00  0.00    +0.150 HD
BRANCH   4   6
ATOM      6  CA  SER A   4      11.274   3.923  23.437  0.00  0.00    +0.184 C 
BRANCH   6   7
ATOM      7  C   SER A   4      10.123   4.855  23.861  0.00  0.00    +0.236 C 
ATOM      8  N   SER A   5       8.881   4.528  23.377  0.00  0.00    -0.300 N 
ATOM      9  H   SER A   5       8.727   3.644  22.892  0.00  0.00    +0.150 HD
ATOM     10  O   SER A   4      10.323   5.859  24.547  0.00  0.00    -0.274 OA
BRANCH   8  11
ATOM     11  CA  SER A   5       7.651   5.199  23.823  0.00  0.00    +0.184 C 
BRANCH  11  12
ATOM     12  C   SER A   5       7.021   4.304  24.907  0.00  0.00    +0.236 C 
ATOM     13  N   GLN A   6       7.103   2.951  24.694  0.00  0.00    -0.304 N 
ATOM     14  H   GLN A   6       7.608   2.575  23.894  0.00  0.00    +0.149 HD
ATOM     15  O   SER A   5       6.445   4.788  25.883  0.00  0.00    -0.274 OA
BRANCH  13  16
ATOM     16  CA  GLN A   6       6.640   1.969  25.676  0.00  0.00    +0.136 C 
BRANCH  16  17
ATOM     17  C   GLN A   6       7.883   1.234  26.167  0.00  0.00    +0.245 C 
ATOM     18  O   GLN A   6       7.847   0.362  27.035  0.00  0.00    -0.299 OA
ENDBRANCH  16  17
BRANCH  16  19
ATOM     19  CB  GLN A   6       5.625   0.997  25.067  0.00  0.00    +0.039 C 
BRANCH  19  20
ATOM     20  CG  GLN A   6       4.730   0.342  26.122  0.00  0.00    +0.098 C 
BRANCH  20  21
ATOM     21  CD  GLN A   6       4.822  -1.168  26.166  0.00  0.00    +0.211 C 
ATOM     22  OE1 GLN A   6       4.182  -1.885  25.404  0.00  0.00    -0.276 OA
ATOM     23  NE2 GLN A   6       5.578  -1.716  27.156  0.00  0.00    -0.329 N 
ATOM     24 HE21 GLN A   6       6.198  -1.193  27.754  0.00  0.00    +0.145 HD
ATOM     25 HE22 GLN A   6       5.641  -2.727  27.175  0.00  0.00    +0.145 HD
ENDBRANCH  20  21
ENDBRANCH  19  20
ENDBRANCH  16  19
ENDBRANCH  13  16
ENDBRANCH  11  12
BRANCH  11  26
ATOM     26  CB  SER A   5       6.677   5.450  22.666  0.00  0.00    +0.187 C 
BRANCH  26  27
ATOM     27  OG  SER A   5       6.368   4.243  21.969  0.00  0.00    -0.393 OA
ATOM     28  H   SER A   5       5.560   3.885  22.377  0.00  0.00    +0.209 HD
ENDBRANCH  26  27
ENDBRANCH  11  26
ENDBRANCH   8  11
ENDBRANCH   6   7
BRANCH   6  29
ATOM     29  CB  SER A   4      12.342   4.680  22.636  0.00  0.00    +0.187 C 
BRANCH  29  30
ATOM     30  OG  SER A   4      13.516   4.905  23.416  0.00  0.00    -0.393 OA
ATOM     31  H   SER A   4      13.813   4.036  23.739  0.00  0.00    +0.209 HD
ENDBRANCH  29  30
ENDBRANCH   6  29
ENDBRANCH   4   6
ENDBRANCH   1   2
BRANCH   1  34
ATOM     32  C   LEU A   2       9.143  -1.556  23.574  0.00  0.00    +0.234 C 
ATOM     33  O   LEU A   2      10.120  -2.183  23.156  0.00  0.00    -0.274 OA
ATOM     34  N   GLN A   3       8.919  -0.242  23.239  0.00  0.00    -0.302 N 
ATOM     35  H   GLN A   3       8.069   0.230  23.546  0.00  0.00    +0.150 HD
BRANCH  32  36
ATOM     36  CA  LEU A   2       8.070  -2.188  24.494  0.00  0.00    +0.159 C 
BRANCH  36  38
ATOM     37  C   LYS A   1       6.372  -2.667  22.755  0.00  0.00    +0.230 C 
ATOM     38  N   LEU A   2       7.288  -3.113  23.678  0.00  0.00    -0.303 N 
ATOM     39  H   LEU A   2       7.692  -4.034  23.549  0.00  0.00    +0.149 HD
ATOM     40  O   LYS A   1       6.000  -1.499  22.682  0.00  0.00    -0.274 OA
BRANCH  37  41
ATOM     41  CA  LYS A   1       5.867  -3.756  21.783  0.00  0.00    +0.138 C 
BRANCH  41  42
ATOM     42  N   LYS A   1       5.742  -3.181  20.434  0.00  0.00    -0.320 NA
ATOM     43  H1  LYS A   1       6.337  -3.706  19.791  0.00  0.00    +0.119 HD
ATOM     44  H2  LYS A   1       4.791  -3.356  20.099  0.00  0.00    +0.119 HD
ENDBRANCH  41  42
BRANCH  41  45
ATOM     45  CB  LYS A   1       6.864  -4.927  21.758  0.00  0.00    +0.028 C 
BRANCH  45  46
ATOM     46  CG  LYS A   1       6.224  -6.223  22.263  0.00  0.00    +0.007 C 
BRANCH  46  47
ATOM     47  CD  LYS A   1       4.900  -5.991  22.990  0.00  0.00    +0.051 C 
BRANCH  47  48
ATOM     48  CE  LYS A   1       5.141  -6.052  24.493  0.00  0.00    +0.127 C 
BRANCH  48  49
ATOM     49  NZ  LYS A   1       4.567  -4.862  25.152  0.00  0.00    +0.219 N 
ATOM     50  HZ1 LYS A   1       5.186  -4.497  25.886  0.00  0.00    +0.199 HD
ATOM     51  HZ2 LYS A   1       4.472  -4.114  24.447  0.00  0.00    +0.199 HD
ATOM     52  HZ3 LYS A   1       3.643  -5.046  25.561  0.00  0.00    +0.199 HD
ENDBRANCH  48  49
ENDBRANCH  47  48
ENDBRANCH  46  47
ENDBRANCH  45  46
ENDBRANCH  41  45
ENDBRANCH  37  41
ENDBRANCH  36  38
BRANCH  36  53
ATOM     53  CB  LEU A   2       8.709  -2.916  25.683  0.00  0.00    +0.034 C 
BRANCH  53  54
ATOM     54  CG  LEU A   2       8.565  -4.452  25.626  0.00  0.00    -0.015 C 
ATOM     55  CD2 LEU A   2       7.858  -5.014  26.862  0.00  0.00    +0.007 C 
ATOM     56  CD1 LEU A   2       9.942  -5.102  25.483  0.00  0.00    +0.007 C 
ENDBRANCH  53  54
ENDBRANCH  36  53
ENDBRANCH  32  36
ENDBRANCH   1  34
BRANCH   1  57
ATOM     57  CB  GLN A   3       8.986   1.173  21.224  0.00  0.00    +0.041 C 
BRANCH  57  58
ATOM     58  CG  GLN A   3       8.168   0.176  20.406  0.00  0.00    +0.098 C 
BRANCH  58  59
ATOM     59  CD  GLN A   3       6.722   0.636  20.328  0.00  0.00    +0.211 C 
ATOM     60  NE2 GLN A   3       5.862  -0.278  19.798  0.00  0.00    -0.329 N 
ATOM     61 HE21 GLN A   3       4.876  -0.058  19.747  0.00  0.00    +0.145 HD
ATOM     62 HE22 GLN A   3       6.122  -1.243  19.627  0.00  0.00    +0.145 HD
ATOM     63  OE1 GLN A   3       6.344   1.763  20.645  0.00  0.00    -0.276 OA
ENDBRANCH  58  59
ENDBRANCH  57  58
ENDBRANCH   1  57
TORSDOF 29
ENDMDL
MODEL 11
REMARK VINA RESULT:      -6.0      2.305      7.150
REMARK  Name = KLQSSQ-mmff94.pdb
REMARK  31 active torsions:
REMARK  status: ('A' for Active; 'I' for Inactive)
REMARK    1  A    between atoms: _1  and  _2
REMARK    2  A    between atoms: _2  and  _3
REMARK    3  A    between atoms: _2  and  _5
REMARK    4  A    between atoms: _5  and  _6
REMARK    5  A    between atoms: _6  and  _7
REMARK    6  A    between atoms: _7  and  _8
REMARK    7  A    between atoms: _8  and  _9
REMARK    8  A    between atoms: _23  and  _24
REMARK    9  A    between atoms: _24  and  _25
REMARK   10  A    between atoms: _24  and  _27
REMARK   11  A    between atoms: _27  and  _28
REMARK   12  A    between atoms: _28  and  _29
REMARK   13  A    between atoms: _28  and  _30
REMARK   14  A    between atoms: _42  and  _43
REMARK   15  A    between atoms: _43  and  _44
REMARK   16  A    between atoms: _43  and  _46
REMARK   17  A    between atoms: _46  and  _47
REMARK   18  A    between atoms: _47  and  _48
REMARK   19  A    between atoms: _59  and  _60
REMARK   20  A    between atoms: _60  and  _61
REMARK   21  A    between atoms: _60  and  _63
REMARK   22  A    between atoms: _63  and  _64
REMARK   23  A    between atoms: _70  and  _71
REMARK   24  A    between atoms: _71  and  _72
REMARK   25  A    between atoms: _71  and  _74
REMARK   26  A    between atoms: _74  and  _75
REMARK   27  A    between atoms: _81  and  _82
REMARK   28  A    between atoms: _82  and  _83
REMARK   29  A    between atoms: _82  and  _85
REMARK   30  A    between atoms: _85  and  _86
REMARK   31  A    between atoms: _86  and  _87
REMARK                            x       y       z     vdW  Elec       q    Type
REMARK                         _______ _______ _______ _____ _____    ______ ____
ROOT
ATOM      1  CA  GLN A   3       6.627  -1.727  20.930  0.00  0.00    +0.159 C 
ENDROOT
BRANCH   1   2
ATOM      2  C   GLN A   3       7.229  -0.475  21.602  0.00  0.00    +0.234 C 
ATOM      3  O   GLN A   3       8.408  -0.161  21.438  0.00  0.00    -0.274 OA
ATOM      4  N   SER A   4       6.391   0.244  22.410  0.00  0.00    -0.301 N 
ATOM      5  H   SER A   4       5.405   0.015  22.510  0.00  0.00    +0.150 HD
BRANCH   4   6
ATOM      6  CA  SER A   4       6.851   1.424  23.159  0.00  0.00    +0.184 C 
BRANCH   6   7
ATOM      7  C   SER A   4       7.128   0.983  24.609  0.00  0.00    +0.236 C 
ATOM      8  N   SER A   5       6.070   0.413  25.272  0.00  0.00    -0.300 N 
ATOM      9  H   SER A   5       5.211   0.175  24.776  0.00  0.00    +0.150 HD
ATOM     10  O   SER A   4       8.218   1.182  25.148  0.00  0.00    -0.274 OA
BRANCH   8  11
ATOM     11  CA  SER A   5       6.207  -0.223  26.591  0.00  0.00    +0.184 C 
BRANCH  11  12
ATOM     12  C   SER A   5       5.119  -1.310  26.680  0.00  0.00    +0.236 C 
ATOM     13  N   GLN A   6       5.014  -1.961  27.884  0.00  0.00    -0.304 N 
ATOM     14  H   GLN A   6       5.587  -1.688  28.679  0.00  0.00    +0.149 HD
ATOM     15  O   SER A   5       4.416  -1.596  25.709  0.00  0.00    -0.274 OA
BRANCH  13  16
ATOM     16  CA  GLN A   6       3.968  -2.947  28.157  0.00  0.00    +0.136 C 
BRANCH  16  17
ATOM     17  C   GLN A   6       2.711  -2.155  28.502  0.00  0.00    +0.245 C 
ATOM     18  O   GLN A   6       2.724  -1.159  29.225  0.00  0.00    -0.299 OA
ENDBRANCH  16  17
BRANCH  16  19
ATOM     19  CB  GLN A   6       4.363  -3.886  29.302  0.00  0.00    +0.039 C 
BRANCH  19  20
ATOM     20  CG  GLN A   6       4.103  -5.357  28.973  0.00  0.00    +0.098 C 
BRANCH  20  21
ATOM     21  CD  GLN A   6       5.282  -6.271  29.230  0.00  0.00    +0.211 C 
ATOM     22  OE1 GLN A   6       6.170  -5.984  30.026  0.00  0.00    -0.276 OA
ATOM     23  NE2 GLN A   6       5.375  -7.395  28.470  0.00  0.00    -0.329 N 
ATOM     24 HE21 GLN A   6       4.643  -7.737  27.868  0.00  0.00    +0.145 HD
ATOM     25 HE22 GLN A   6       6.163  -8.005  28.653  0.00  0.00    +0.145 HD
ENDBRANCH  20  21
ENDBRANCH  19  20
ENDBRANCH  16  19
ENDBRANCH  13  16
ENDBRANCH  11  12
BRANCH  11  26
ATOM     26  CB  SER A   5       6.084   0.789  27.737  0.00  0.00    +0.187 C 
BRANCH  26  27
ATOM     27  OG  SER A   5       7.342   1.394  28.040  0.00  0.00    -0.393 OA
ATOM     28  H   SER A   5       7.149   2.298  28.344  0.00  0.00    +0.209 HD
ENDBRANCH  26  27
ENDBRANCH  11  26
ENDBRANCH   8  11
ENDBRANCH   6   7
BRANCH   6  29
ATOM     29  CB  SER A   4       5.842   2.580  23.109  0.00  0.00    +0.187 C 
BRANCH  29  30
ATOM     30  OG  SER A   4       5.060   2.537  21.916  0.00  0.00    -0.393 OA
ATOM     31  H   SER A   4       5.616   2.890  21.199  0.00  0.00    +0.209 HD
ENDBRANCH  29  30
ENDBRANCH   6  29
ENDBRANCH   4   6
ENDBRANCH   1   2
BRANCH   1  34
ATOM     32  C   LEU A   2       6.320  -3.754  22.354  0.00  0.00    +0.234 C 
ATOM     33  O   LEU A   2       7.235  -4.360  21.791  0.00  0.00    -0.274 OA
ATOM     34  N   GLN A   3       5.967  -2.473  22.003  0.00  0.00    -0.302 N 
ATOM     35  H   GLN A   3       5.165  -2.021  22.441  0.00  0.00    +0.150 HD
BRANCH  32  36
ATOM     36  CA  LEU A   2       5.471  -4.378  23.488  0.00  0.00    +0.159 C 
BRANCH  36  38
ATOM     37  C   LYS A   1       6.331  -4.984  25.731  0.00  0.00    +0.230 C 
ATOM     38  N   LEU A   2       6.118  -4.041  24.753  0.00  0.00    -0.303 N 
ATOM     39  H   LEU A   2       6.715  -3.222  24.736  0.00  0.00    +0.149 HD
ATOM     40  O   LYS A   1       5.832  -6.107  25.707  0.00  0.00    -0.274 OA
BRANCH  37  41
ATOM     41  CA  LYS A   1       7.286  -4.529  26.856  0.00  0.00    +0.138 C 
BRANCH  41  42
ATOM     42  N   LYS A   1       7.982  -5.704  27.405  0.00  0.00    -0.320 NA
ATOM     43  H1  LYS A   1       8.975  -5.485  27.505  0.00  0.00    +0.119 HD
ATOM     44  H2  LYS A   1       7.657  -5.848  28.365  0.00  0.00    +0.119 HD
ENDBRANCH  41  42
BRANCH  41  45
ATOM     45  CB  LYS A   1       8.313  -3.534  26.289  0.00  0.00    +0.028 C 
BRANCH  45  46
ATOM     46  CG  LYS A   1       9.377  -4.241  25.446  0.00  0.00    +0.007 C 
BRANCH  46  47
ATOM     47  CD  LYS A   1       9.794  -3.436  24.215  0.00  0.00    +0.051 C 
BRANCH  47  48
ATOM     48  CE  LYS A   1       9.065  -2.099  24.226  0.00  0.00    +0.127 C 
BRANCH  48  49
ATOM     49  NZ  LYS A   1      10.027  -0.990  24.065  0.00  0.00    +0.219 N 
ATOM     50  HZ1 LYS A   1       9.566  -0.074  24.131  0.00  0.00    +0.199 HD
ATOM     51  HZ2 LYS A   1      10.707  -1.035  24.840  0.00  0.00    +0.199 HD
ATOM     52  HZ3 LYS A   1      10.538  -1.038  23.177  0.00  0.00    +0.199 HD
ENDBRANCH  48  49
ENDBRANCH  47  48
ENDBRANCH  46  47
ENDBRANCH  45  46
ENDBRANCH  41  45
ENDBRANCH  37  41
ENDBRANCH  36  38
BRANCH  36  53
ATOM     53  CB  LEU A   2       4.028  -3.860  23.458  0.00  0.00    +0.034 C 
BRANCH  53  54
ATOM     54  CG  LEU A   2       3.012  -4.801  24.142  0.00  0.00    -0.015 C 
ATOM     55  CD2 LEU A   2       2.226  -5.639  23.131  0.00  0.00    +0.007 C 
ATOM     56  CD1 LEU A   2       2.041  -3.986  24.999  0.00  0.00    +0.007 C 
ENDBRANCH  53  54
ENDBRANCH  36  53
ENDBRANCH  32  36
ENDBRANCH   1  34
BRANCH   1  57
ATOM     57  CB  GLN A   3       5.612  -1.347  19.842  0.00  0.00    +0.041 C 
BRANCH  57  58
ATOM     58  CG  GLN A   3       6.259  -0.814  18.565  0.00  0.00    +0.098 C 
BRANCH  58  59
ATOM     59  CD  GLN A   3       5.791   0.607  18.303  0.00  0.00    +0.211 C 
ATOM     60  NE2 GLN A   3       4.763   1.022  19.095  0.00  0.00    -0.329 N 
ATOM     61 HE21 GLN A   3       4.421   1.970  19.004  0.00  0.00    +0.145 HD
ATOM     62 HE22 GLN A   3       4.445   0.499  19.903  0.00  0.00    +0.145 HD
ATOM     63  OE1 GLN A   3       6.240   1.323  17.408  0.00  0.00    -0.276 OA
ENDBRANCH  58  59
ENDBRANCH  57  58
ENDBRANCH   1  57
TORSDOF 29
ENDMDL
MODEL 12
REMARK VINA RESULT:      -5.9      1.934      4.089
REMARK  Name = KLQSSQ-mmff94.pdb
REMARK  31 active torsions:
REMARK  status: ('A' for Active; 'I' for Inactive)
REMARK    1  A    between atoms: _1  and  _2
REMARK    2  A    between atoms: _2  and  _3
REMARK    3  A    between atoms: _2  and  _5
REMARK    4  A    between atoms: _5  and  _6
REMARK    5  A    between atoms: _6  and  _7
REMARK    6  A    between atoms: _7  and  _8
REMARK    7  A    between atoms: _8  and  _9
REMARK    8  A    between atoms: _23  and  _24
REMARK    9  A    between atoms: _24  and  _25
REMARK   10  A    between atoms: _24  and  _27
REMARK   11  A    between atoms: _27  and  _28
REMARK   12  A    between atoms: _28  and  _29
REMARK   13  A    between atoms: _28  and  _30
REMARK   14  A    between atoms: _42  and  _43
REMARK   15  A    between atoms: _43  and  _44
REMARK   16  A    between atoms: _43  and  _46
REMARK   17  A    between atoms: _46  and  _47
REMARK   18  A    between atoms: _47  and  _48
REMARK   19  A    between atoms: _59  and  _60
REMARK   20  A    between atoms: _60  and  _61
REMARK   21  A    between atoms: _60  and  _63
REMARK   22  A    between atoms: _63  and  _64
REMARK   23  A    between atoms: _70  and  _71
REMARK   24  A    between atoms: _71  and  _72
REMARK   25  A    between atoms: _71  and  _74
REMARK   26  A    between atoms: _74  and  _75
REMARK   27  A    between atoms: _81  and  _82
REMARK   28  A    between atoms: _82  and  _83
REMARK   29  A    between atoms: _82  and  _85
REMARK   30  A    between atoms: _85  and  _86
REMARK   31  A    between atoms: _86  and  _87
REMARK                            x       y       z     vdW  Elec       q    Type
REMARK                         _______ _______ _______ _____ _____    ______ ____
ROOT
ATOM      1  CA  GLN A   3       7.496  -2.010  23.253  0.00  0.00    +0.159 C 
ENDROOT
BRANCH   1   2
ATOM      2  C   GLN A   3       7.925  -3.411  23.739  0.00  0.00    +0.234 C 
ATOM      3  O   GLN A   3       8.323  -4.271  22.953  0.00  0.00    -0.274 OA
ATOM      4  N   SER A   4       7.809  -3.651  25.081  0.00  0.00    -0.301 N 
ATOM      5  H   SER A   4       7.527  -2.928  25.739  0.00  0.00    +0.150 HD
BRANCH   4   6
ATOM      6  CA  SER A   4       8.126  -4.961  25.670  0.00  0.00    +0.184 C 
BRANCH   6   7
ATOM      7  C   SER A   4       7.163  -5.191  26.852  0.00  0.00    +0.236 C 
ATOM      8  N   SER A   5       5.912  -4.644  26.717  0.00  0.00    -0.300 N 
ATOM      9  H   SER A   5       5.612  -4.242  25.830  0.00  0.00    +0.150 HD
ATOM     10  O   SER A   4       7.521  -5.785  27.871  0.00  0.00    -0.274 OA
BRANCH   8  11
ATOM     11  CA  SER A   5       4.819  -4.917  27.662  0.00  0.00    +0.184 C 
BRANCH  11  12
ATOM     12  C   SER A   5       3.604  -5.361  26.826  0.00  0.00    +0.236 C 
ATOM     13  N   GLN A   6       3.878  -5.822  25.562  0.00  0.00    -0.304 N 
ATOM     14  H   GLN A   6       4.837  -5.915  25.234  0.00  0.00    +0.149 HD
ATOM     15  O   SER A   5       2.456  -5.268  27.263  0.00  0.00    -0.274 OA
BRANCH  13  16
ATOM     16  CA  GLN A   6       2.845  -6.371  24.683  0.00  0.00    +0.136 C 
BRANCH  16  17
ATOM     17  C   GLN A   6       3.020  -7.885  24.708  0.00  0.00    +0.245 C 
ATOM     18  O   GLN A   6       2.222  -8.661  24.182  0.00  0.00    -0.299 OA
ENDBRANCH  16  17
BRANCH  16  19
ATOM     19  CB  GLN A   6       2.967  -5.823  23.257  0.00  0.00    +0.039 C 
BRANCH  19  20
ATOM     20  CG  GLN A   6       4.080  -4.783  23.119  0.00  0.00    +0.098 C 
BRANCH  20  21
ATOM     21  CD  GLN A   6       5.241  -5.224  22.252  0.00  0.00    +0.211 C 
ATOM     22  OE1 GLN A   6       5.570  -4.614  21.241  0.00  0.00    -0.276 OA
ATOM     23  NE2 GLN A   6       5.858  -6.389  22.586  0.00  0.00    -0.329 N 
ATOM     24 HE21 GLN A   6       5.702  -6.890  23.446  0.00  0.00    +0.145 HD
ATOM     25 HE22 GLN A   6       6.638  -6.675  22.005  0.00  0.00    +0.145 HD
ENDBRANCH  20  21
ENDBRANCH  19  20
ENDBRANCH  16  19
ENDBRANCH  13  16
ENDBRANCH  11  12
BRANCH  11  26
ATOM     26  CB  SER A   5       4.486  -3.698  28.531  0.00  0.00    +0.187 C 
BRANCH  26  27
ATOM     27  OG  SER A   5       3.846  -2.672  27.770  0.00  0.00    -0.393 OA
ATOM     28  H   SER A   5       2.895  -2.734  27.964  0.00  0.00    +0.209 HD
ENDBRANCH  26  27
ENDBRANCH  11  26
ENDBRANCH   8  11
ENDBRANCH   6   7
BRANCH   6  29
ATOM     29  CB  SER A   4       9.591  -5.066  26.114  0.00  0.00    +0.187 C 
BRANCH  29  30
ATOM     30  OG  SER A   4      10.467  -5.183  24.993  0.00  0.00    -0.393 OA
ATOM     31  H   SER A   4      10.002  -4.801  24.229  0.00  0.00    +0.209 HD
ENDBRANCH  29  30
ENDBRANCH   6  29
ENDBRANCH   4   6
ENDBRANCH   1   2
BRANCH   1  34
ATOM     32  C   LEU A   2       7.458   0.198  24.415  0.00  0.00    +0.234 C 
ATOM     33  O   LEU A   2       6.575   0.639  23.674  0.00  0.00    -0.274 OA
ATOM     34  N   GLN A   3       7.953  -1.077  24.283  0.00  0.00    -0.302 N 
ATOM     35  H   GLN A   3       8.728  -1.391  24.866  0.00  0.00    +0.150 HD
BRANCH  32  36
ATOM     36  CA  LEU A   2       8.105   1.038  25.543  0.00  0.00    +0.159 C 
BRANCH  36  38
ATOM     37  C   LYS A   1      10.126   1.811  24.337  0.00  0.00    +0.230 C 
ATOM     38  N   LEU A   2       8.904   2.081  24.905  0.00  0.00    -0.303 N 
ATOM     39  H   LEU A   2       8.388   2.890  24.576  0.00  0.00    +0.149 HD
ATOM     40  O   LYS A   1      10.722   0.747  24.488  0.00  0.00    -0.274 OA
BRANCH  37  41
ATOM     41  CA  LYS A   1      10.683   2.949  23.454  0.00  0.00    +0.138 C 
BRANCH  41  42
ATOM     42  N   LYS A   1      10.480   2.606  22.037  0.00  0.00    -0.320 NA
ATOM     43  H1  LYS A   1      10.220   3.450  21.524  0.00  0.00    +0.119 HD
ATOM     44  H2  LYS A   1      11.386   2.339  21.641  0.00  0.00    +0.119 HD
ENDBRANCH  41  42
BRANCH  41  45
ATOM     45  CB  LYS A   1       9.948   4.261  23.781  0.00  0.00    +0.028 C 
BRANCH  45  46
ATOM     46  CG  LYS A   1      10.788   5.486  23.407  0.00  0.00    +0.007 C 
BRANCH  46  47
ATOM     47  CD  LYS A   1      12.193   5.451  24.006  0.00  0.00    +0.051 C 
BRANCH  47  48
ATOM     48  CE  LYS A   1      13.213   5.651  22.893  0.00  0.00    +0.127 C 
BRANCH  48  49
ATOM     49  NZ  LYS A   1      12.670   5.164  21.608  0.00  0.00    +0.219 N 
ATOM     50  HZ1 LYS A   1      12.750   4.143  21.523  0.00  0.00    +0.199 HD
ATOM     51  HZ2 LYS A   1      11.662   5.385  21.577  0.00  0.00    +0.199 HD
ATOM     52  HZ3 LYS A   1      13.126   5.599  20.798  0.00  0.00    +0.199 HD
ENDBRANCH  48  49
ENDBRANCH  47  48
ENDBRANCH  46  47
ENDBRANCH  45  46
ENDBRANCH  41  45
ENDBRANCH  37  41
ENDBRANCH  36  38
BRANCH  36  53
ATOM     53  CB  LEU A   2       7.043   1.650  26.464  0.00  0.00    +0.034 C 
BRANCH  53  54
ATOM     54  CG  LEU A   2       6.779   3.149  26.204  0.00  0.00    -0.015 C 
ATOM     55  CD2 LEU A   2       6.991   4.002  27.457  0.00  0.00    +0.007 C 
ATOM     56  CD1 LEU A   2       5.353   3.346  25.684  0.00  0.00    +0.007 C 
ENDBRANCH  53  54
ENDBRANCH  36  53
ENDBRANCH  32  36
ENDBRANCH   1  34
BRANCH   1  57
ATOM     57  CB  GLN A   3       8.135  -1.666  21.898  0.00  0.00    +0.041 C 
BRANCH  57  58
ATOM     58  CG  GLN A   3       7.135  -1.142  20.870  0.00  0.00    +0.098 C 
BRANCH  58  59
ATOM     59  CD  GLN A   3       7.762  -0.014  20.069  0.00  0.00    +0.211 C 
ATOM     60  NE2 GLN A   3       8.216   1.031  20.818  0.00  0.00    -0.329 N 
ATOM     61 HE21 GLN A   3       8.679   1.805  20.358  0.00  0.00    +0.145 HD
ATOM     62 HE22 GLN A   3       8.287   0.994  21.828  0.00  0.00    +0.145 HD
ATOM     63  OE1 GLN A   3       7.808   0.012  18.839  0.00  0.00    -0.276 OA
ENDBRANCH  58  59
ENDBRANCH  57  58
ENDBRANCH   1  57
TORSDOF 29
ENDMDL
MODEL 13
REMARK VINA RESULT:      -5.9      2.517      8.064
REMARK  Name = KLQSSQ-mmff94.pdb
REMARK  31 active torsions:
REMARK  status: ('A' for Active; 'I' for Inactive)
REMARK    1  A    between atoms: _1  and  _2
REMARK    2  A    between atoms: _2  and  _3
REMARK    3  A    between atoms: _2  and  _5
REMARK    4  A    between atoms: _5  and  _6
REMARK    5  A    between atoms: _6  and  _7
REMARK    6  A    between atoms: _7  and  _8
REMARK    7  A    between atoms: _8  and  _9
REMARK    8  A    between atoms: _23  and  _24
REMARK    9  A    between atoms: _24  and  _25
REMARK   10  A    between atoms: _24  and  _27
REMARK   11  A    between atoms: _27  and  _28
REMARK   12  A    between atoms: _28  and  _29
REMARK   13  A    between atoms: _28  and  _30
REMARK   14  A    between atoms: _42  and  _43
REMARK   15  A    between atoms: _43  and  _44
REMARK   16  A    between atoms: _43  and  _46
REMARK   17  A    between atoms: _46  and  _47
REMARK   18  A    between atoms: _47  and  _48
REMARK   19  A    between atoms: _59  and  _60
REMARK   20  A    between atoms: _60  and  _61
REMARK   21  A    between atoms: _60  and  _63
REMARK   22  A    between atoms: _63  and  _64
REMARK   23  A    between atoms: _70  and  _71
REMARK   24  A    between atoms: _71  and  _72
REMARK   25  A    between atoms: _71  and  _74
REMARK   26  A    between atoms: _74  and  _75
REMARK   27  A    between atoms: _81  and  _82
REMARK   28  A    between atoms: _82  and  _83
REMARK   29  A    between atoms: _82  and  _85
REMARK   30  A    between atoms: _85  and  _86
REMARK   31  A    between atoms: _86  and  _87
REMARK                            x       y       z     vdW  Elec       q    Type
REMARK                         _______ _______ _______ _____ _____    ______ ____
ROOT
ATOM      1  CA  GLN A   3       8.788   0.296  21.377  0.00  0.00    +0.159 C 
ENDROOT
BRANCH   1   2
ATOM      2  C   GLN A   3       9.196   1.036  22.669  0.00  0.00    +0.234 C 
ATOM      3  O   GLN A   3       8.883   0.608  23.781  0.00  0.00    -0.274 OA
ATOM      4  N   SER A   4       9.893   2.202  22.508  0.00  0.00    -0.301 N 
ATOM      5  H   SER A   4      10.194   2.532  21.594  0.00  0.00    +0.150 HD
BRANCH   4   6
ATOM      6  CA  SER A   4      10.291   3.037  23.652  0.00  0.00    +0.184 C 
BRANCH   6   7
ATOM      7  C   SER A   4       9.116   3.978  23.979  0.00  0.00    +0.236 C 
ATOM      8  N   SER A   5       7.882   3.567  23.541  0.00  0.00    -0.300 N 
ATOM      9  H   SER A   5       7.751   2.632  23.155  0.00  0.00    +0.150 HD
ATOM     10  O   SER A   4       9.291   5.055  24.552  0.00  0.00    -0.274 OA
BRANCH   8  11
ATOM     11  CA  SER A   5       6.636   4.249  23.920  0.00  0.00    +0.184 C 
BRANCH  11  12
ATOM     12  C   SER A   5       5.938   3.358  24.965  0.00  0.00    +0.236 C 
ATOM     13  N   GLN A   6       6.705   2.969  26.035  0.00  0.00    -0.304 N 
ATOM     14  H   GLN A   6       7.659   3.308  26.147  0.00  0.00    +0.149 HD
ATOM     15  O   SER A   5       4.770   2.992  24.819  0.00  0.00    -0.274 OA
BRANCH  13  16
ATOM     16  CA  GLN A   6       6.161   2.206  27.159  0.00  0.00    +0.136 C 
BRANCH  16  17
ATOM     17  C   GLN A   6       6.805   2.777  28.418  0.00  0.00    +0.245 C 
ATOM     18  O   GLN A   6       7.263   3.918  28.477  0.00  0.00    -0.299 OA
ENDBRANCH  16  17
BRANCH  16  19
ATOM     19  CB  GLN A   6       6.452   0.708  27.018  0.00  0.00    +0.039 C 
BRANCH  19  20
ATOM     20  CG  GLN A   6       5.274  -0.068  26.426  0.00  0.00    +0.098 C 
BRANCH  20  21
ATOM     21  CD  GLN A   6       5.569  -0.729  25.096  0.00  0.00    +0.211 C 
ATOM     22  OE1 GLN A   6       5.596  -1.948  24.964  0.00  0.00    -0.276 OA
ATOM     23  NE2 GLN A   6       5.901   0.084  24.058  0.00  0.00    -0.329 N 
ATOM     24 HE21 GLN A   6       5.812   1.088  24.070  0.00  0.00    +0.145 HD
ATOM     25 HE22 GLN A   6       6.091  -0.365  23.169  0.00  0.00    +0.145 HD
ENDBRANCH  20  21
ENDBRANCH  19  20
ENDBRANCH  16  19
ENDBRANCH  13  16
ENDBRANCH  11  12
BRANCH  11  26
ATOM     26  CB  SER A   5       5.729   4.511  22.712  0.00  0.00    +0.187 C 
BRANCH  26  27
ATOM     27  OG  SER A   5       5.541   3.330  21.931  0.00  0.00    -0.393 OA
ATOM     28  H   SER A   5       6.278   2.732  22.148  0.00  0.00    +0.209 HD
ENDBRANCH  26  27
ENDBRANCH  11  26
ENDBRANCH   8  11
ENDBRANCH   6   7
BRANCH   6  29
ATOM     29  CB  SER A   4      11.581   3.825  23.381  0.00  0.00    +0.187 C 
BRANCH  29  30
ATOM     30  OG  SER A   4      11.300   5.098  22.798  0.00  0.00    -0.393 OA
ATOM     31  H   SER A   4      11.881   5.744  23.236  0.00  0.00    +0.209 HD
ENDBRANCH  29  30
ENDBRANCH   6  29
ENDBRANCH   4   6
ENDBRANCH   1   2
BRANCH   1  34
ATOM     32  C   LEU A   2       8.878  -2.067  22.173  0.00  0.00    +0.234 C 
ATOM     33  O   LEU A   2      10.112  -2.087  22.159  0.00  0.00    -0.274 OA
ATOM     34  N   GLN A   3       8.161  -0.951  21.817  0.00  0.00    -0.302 N 
ATOM     35  H   GLN A   3       7.142  -0.985  21.776  0.00  0.00    +0.150 HD
BRANCH  32  36
ATOM     36  CA  LEU A   2       8.024  -3.295  22.570  0.00  0.00    +0.159 C 
BRANCH  36  38
ATOM     37  C   LYS A   1       8.616  -4.297  24.757  0.00  0.00    +0.230 C 
ATOM     38  N   LEU A   2       7.962  -3.331  24.029  0.00  0.00    -0.303 N 
ATOM     39  H   LEU A   2       7.749  -2.449  24.481  0.00  0.00    +0.149 HD
ATOM     40  O   LYS A   1       9.124  -5.295  24.253  0.00  0.00    -0.274 OA
BRANCH  37  41
ATOM     41  CA  LYS A   1       8.694  -4.007  26.272  0.00  0.00    +0.138 C 
BRANCH  41  42
ATOM     42  N   LYS A   1       8.127  -2.675  26.541  0.00  0.00    -0.320 NA
ATOM     43  H1  LYS A   1       8.254  -2.087  25.716  0.00  0.00    +0.119 HD
ATOM     44  H2  LYS A   1       7.112  -2.773  26.629  0.00  0.00    +0.119 HD
ENDBRANCH  41  42
BRANCH  41  45
ATOM     45  CB  LYS A   1       7.898  -5.075  27.043  0.00  0.00    +0.028 C 
BRANCH  45  46
ATOM     46  CG  LYS A   1       6.394  -4.792  27.009  0.00  0.00    +0.007 C 
BRANCH  46  47
ATOM     47  CD  LYS A   1       5.590  -5.918  26.361  0.00  0.00    +0.051 C 
BRANCH  47  48
ATOM     48  CE  LYS A   1       5.068  -6.846  27.451  0.00  0.00    +0.127 C 
BRANCH  48  49
ATOM     49  NZ  LYS A   1       3.613  -7.047  27.299  0.00  0.00    +0.219 N 
ATOM     50  HZ1 LYS A   1       3.296  -6.829  26.347  0.00  0.00    +0.199 HD
ATOM     51  HZ2 LYS A   1       3.405  -8.045  27.458  0.00  0.00    +0.199 HD
ATOM     52  HZ3 LYS A   1       3.067  -6.488  27.965  0.00  0.00    +0.199 HD
ENDBRANCH  48  49
ENDBRANCH  47  48
ENDBRANCH  46  47
ENDBRANCH  45  46
ENDBRANCH  41  45
ENDBRANCH  37  41
ENDBRANCH  36  38
BRANCH  36  53
ATOM     53  CB  LEU A   2       6.616  -3.217  21.967  0.00  0.00    +0.034 C 
BRANCH  53  54
ATOM     54  CG  LEU A   2       5.969  -4.595  21.709  0.00  0.00    -0.015 C 
ATOM     55  CD2 LEU A   2       5.016  -5.008  22.834  0.00  0.00    +0.007 C 
ATOM     56  CD1 LEU A   2       7.055  -5.659  21.539  0.00  0.00    +0.007 C 
ENDBRANCH  53  54
ENDBRANCH  36  53
ENDBRANCH  32  36
ENDBRANCH   1  34
BRANCH   1  57
ATOM     57  CB  GLN A   3       7.799   1.126  20.544  0.00  0.00    +0.041 C 
BRANCH  57  58
ATOM     58  CG  GLN A   3       7.352   0.430  19.260  0.00  0.00    +0.098 C 
BRANCH  58  59
ATOM     59  CD  GLN A   3       5.905   0.783  18.958  0.00  0.00    +0.211 C 
ATOM     60  NE2 GLN A   3       5.365   0.113  17.901  0.00  0.00    -0.329 N 
ATOM     61 HE21 GLN A   3       4.394   0.268  17.662  0.00  0.00    +0.145 HD
ATOM     62 HE22 GLN A   3       5.824  -0.674  17.457  0.00  0.00    +0.145 HD
ATOM     63  OE1 GLN A   3       5.271   1.649  19.560  0.00  0.00    -0.276 OA
ENDBRANCH  58  59
ENDBRANCH  57  58
ENDBRANCH   1  57
TORSDOF 29
ENDMDL
MODEL 14
REMARK VINA RESULT:      -5.9      1.910      3.896
REMARK  Name = KLQSSQ-mmff94.pdb
REMARK  31 active torsions:
REMARK  status: ('A' for Active; 'I' for Inactive)
REMARK    1  A    between atoms: _1  and  _2
REMARK    2  A    between atoms: _2  and  _3
REMARK    3  A    between atoms: _2  and  _5
REMARK    4  A    between atoms: _5  and  _6
REMARK    5  A    between atoms: _6  and  _7
REMARK    6  A    between atoms: _7  and  _8
REMARK    7  A    between atoms: _8  and  _9
REMARK    8  A    between atoms: _23  and  _24
REMARK    9  A    between atoms: _24  and  _25
REMARK   10  A    between atoms: _24  and  _27
REMARK   11  A    between atoms: _27  and  _28
REMARK   12  A    between atoms: _28  and  _29
REMARK   13  A    between atoms: _28  and  _30
REMARK   14  A    between atoms: _42  and  _43
REMARK   15  A    between atoms: _43  and  _44
REMARK   16  A    between atoms: _43  and  _46
REMARK   17  A    between atoms: _46  and  _47
REMARK   18  A    between atoms: _47  and  _48
REMARK   19  A    between atoms: _59  and  _60
REMARK   20  A    between atoms: _60  and  _61
REMARK   21  A    between atoms: _60  and  _63
REMARK   22  A    between atoms: _63  and  _64
REMARK   23  A    between atoms: _70  and  _71
REMARK   24  A    between atoms: _71  and  _72
REMARK   25  A    between atoms: _71  and  _74
REMARK   26  A    between atoms: _74  and  _75
REMARK   27  A    between atoms: _81  and  _82
REMARK   28  A    between atoms: _82  and  _83
REMARK   29  A    between atoms: _82  and  _85
REMARK   30  A    between atoms: _85  and  _86
REMARK   31  A    between atoms: _86  and  _87
REMARK                            x       y       z     vdW  Elec       q    Type
REMARK                         _______ _______ _______ _____ _____    ______ ____
ROOT
ATOM      1  CA  GLN A   3       9.624  -0.790  24.124  0.00  0.00    +0.159 C 
ENDROOT
BRANCH   1   2
ATOM      2  C   GLN A   3       9.400  -2.299  24.356  0.00  0.00    +0.234 C 
ATOM      3  O   GLN A   3       9.842  -3.143  23.576  0.00  0.00    -0.274 OA
ATOM      4  N   SER A   4       8.661  -2.642  25.455  0.00  0.00    -0.301 N 
ATOM      5  H   SER A   4       8.335  -1.951  26.127  0.00  0.00    +0.150 HD
BRANCH   4   6
ATOM      6  CA  SER A   4       8.320  -4.040  25.762  0.00  0.00    +0.184 C 
BRANCH   6   7
ATOM      7  C   SER A   4       7.116  -4.032  26.723  0.00  0.00    +0.236 C 
ATOM      8  N   SER A   5       6.158  -3.082  26.471  0.00  0.00    -0.300 N 
ATOM      9  H   SER A   5       6.188  -2.525  25.617  0.00  0.00    +0.150 HD
ATOM     10  O   SER A   4       7.052  -4.799  27.685  0.00  0.00    -0.274 OA
BRANCH   8  11
ATOM     11  CA  SER A   5       4.867  -3.049  27.173  0.00  0.00    +0.184 C 
BRANCH  11  12
ATOM     12  C   SER A   5       3.883  -3.894  26.343  0.00  0.00    +0.236 C 
ATOM     13  N   GLN A   6       4.446  -4.783  25.462  0.00  0.00    -0.304 N 
ATOM     14  H   GLN A   6       5.455  -4.907  25.416  0.00  0.00    +0.149 HD
ATOM     15  O   SER A   5       2.664  -3.744  26.444  0.00  0.00    -0.274 OA
BRANCH  13  16
ATOM     16  CA  GLN A   6       3.649  -5.724  24.674  0.00  0.00    +0.136 C 
BRANCH  16  17
ATOM     17  C   GLN A   6       3.546  -6.999  25.505  0.00  0.00    +0.245 C 
ATOM     18  O   GLN A   6       3.287  -8.099  25.015  0.00  0.00    -0.299 OA
ENDBRANCH  16  17
BRANCH  16  19
ATOM     19  CB  GLN A   6       4.288  -6.002  23.310  0.00  0.00    +0.039 C 
BRANCH  19  20
ATOM     20  CG  GLN A   6       5.805  -5.800  23.317  0.00  0.00    +0.098 C 
BRANCH  20  21
ATOM     21  CD  GLN A   6       6.469  -6.019  21.974  0.00  0.00    +0.211 C 
ATOM     22  OE1 GLN A   6       7.669  -5.833  21.800  0.00  0.00    -0.276 OA
ATOM     23  NE2 GLN A   6       5.663  -6.345  20.928  0.00  0.00    -0.329 N 
ATOM     24 HE21 GLN A   6       4.692  -6.602  21.015  0.00  0.00    +0.145 HD
ATOM     25 HE22 GLN A   6       6.116  -6.498  20.034  0.00  0.00    +0.145 HD
ENDBRANCH  20  21
ENDBRANCH  19  20
ENDBRANCH  16  19
ENDBRANCH  13  16
ENDBRANCH  11  12
BRANCH  11  26
ATOM     26  CB  SER A   5       4.350  -1.618  27.368  0.00  0.00    +0.187 C 
BRANCH  26  27
ATOM     27  OG  SER A   5       3.933  -1.038  26.131  0.00  0.00    -0.393 OA
ATOM     28  H   SER A   5       3.583  -0.154  26.342  0.00  0.00    +0.209 HD
ENDBRANCH  26  27
ENDBRANCH  11  26
ENDBRANCH   8  11
ENDBRANCH   6   7
BRANCH   6  29
ATOM     29  CB  SER A   4       9.505  -4.815  26.356  0.00  0.00    +0.187 C 
BRANCH  29  30
ATOM     30  OG  SER A   4      10.139  -5.632  25.372  0.00  0.00    -0.393 OA
ATOM     31  H   SER A   4      11.086  -5.659  25.594  0.00  0.00    +0.209 HD
ENDBRANCH  29  30
ENDBRANCH   6  29
ENDBRANCH   4   6
ENDBRANCH   1   2
BRANCH   1  34
ATOM     32  C   LEU A   2       8.847   0.118  21.933  0.00  0.00    +0.234 C 
ATOM     33  O   LEU A   2       9.999   0.231  21.505  0.00  0.00    -0.274 OA
ATOM     34  N   GLN A   3       8.579  -0.374  23.187  0.00  0.00    -0.302 N 
ATOM     35  H   GLN A   3       7.622  -0.394  23.539  0.00  0.00    +0.150 HD
BRANCH  32  36
ATOM     36  CA  LEU A   2       7.602   0.538  21.115  0.00  0.00    +0.159 C 
BRANCH  36  38
ATOM     37  C   LYS A   1       6.794   2.545  22.322  0.00  0.00    +0.230 C 
ATOM     38  N   LEU A   2       7.456   1.984  21.255  0.00  0.00    -0.303 N 
ATOM     39  H   LEU A   2       8.147   2.545  20.769  0.00  0.00    +0.149 HD
ATOM     40  O   LYS A   1       6.119   1.895  23.116  0.00  0.00    -0.274 OA
BRANCH  37  41
ATOM     41  CA  LYS A   1       6.998   4.069  22.467  0.00  0.00    +0.138 C 
BRANCH  41  42
ATOM     42  N   LYS A   1       5.697   4.746  22.340  0.00  0.00    -0.320 NA
ATOM     43  H1  LYS A   1       4.951   4.053  22.428  0.00  0.00    +0.119 HD
ATOM     44  H2  LYS A   1       5.574   5.355  23.154  0.00  0.00    +0.119 HD
ENDBRANCH  41  42
BRANCH  41  45
ATOM     45  CB  LYS A   1       7.612   4.379  23.843  0.00  0.00    +0.028 C 
BRANCH  45  46
ATOM     46  CG  LYS A   1       9.141   4.306  23.808  0.00  0.00    +0.007 C 
BRANCH  46  47
ATOM     47  CD  LYS A   1       9.807   5.671  23.983  0.00  0.00    +0.051 C 
BRANCH  47  48
ATOM     48  CE  LYS A   1      11.264   5.572  23.550  0.00  0.00    +0.127 C 
BRANCH  48  49
ATOM     49  NZ  LYS A   1      11.531   4.248  22.952  0.00  0.00    +0.219 N 
ATOM     50  HZ1 LYS A   1      12.423   4.232  22.445  0.00  0.00    +0.199 HD
ATOM     51  HZ2 LYS A   1      11.612   3.558  23.715  0.00  0.00    +0.199 HD
ATOM     52  HZ3 LYS A   1      10.784   3.946  22.316  0.00  0.00    +0.199 HD
ENDBRANCH  48  49
ENDBRANCH  47  48
ENDBRANCH  46  47
ENDBRANCH  45  46
ENDBRANCH  41  45
ENDBRANCH  37  41
ENDBRANCH  36  38
BRANCH  36  53
ATOM     53  CB  LEU A   2       7.742   0.144  19.640  0.00  0.00    +0.034 C 
BRANCH  53  54
ATOM     54  CG  LEU A   2       6.465  -0.480  19.035  0.00  0.00    -0.015 C 
ATOM     55  CD2 LEU A   2       5.435   0.579  18.636  0.00  0.00    +0.007 C 
ATOM     56  CD1 LEU A   2       5.839  -1.456  20.033  0.00  0.00    +0.007 C 
ENDBRANCH  53  54
ENDBRANCH  36  53
ENDBRANCH  32  36
ENDBRANCH   1  34
BRANCH   1  57
ATOM     57  CB  GLN A   3       9.512   0.003  25.435  0.00  0.00    +0.041 C 
BRANCH  57  58
ATOM     58  CG  GLN A   3       8.387   1.037  25.427  0.00  0.00    +0.098 C 
BRANCH  58  59
ATOM     59  CD  GLN A   3       7.245   0.565  26.310  0.00  0.00    +0.211 C 
ATOM     60  NE2 GLN A   3       6.074   1.239  26.134  0.00  0.00    -0.329 N 
ATOM     61 HE21 GLN A   3       5.257   0.957  26.660  0.00  0.00    +0.145 HD
ATOM     62 HE22 GLN A   3       5.921   1.884  25.366  0.00  0.00    +0.145 HD
ATOM     63  OE1 GLN A   3       7.359  -0.307  27.171  0.00  0.00    -0.276 OA
ENDBRANCH  58  59
ENDBRANCH  57  58
ENDBRANCH   1  57
TORSDOF 29
ENDMDL
MODEL 15
REMARK VINA RESULT:      -5.9      1.974      4.015
REMARK  Name = KLQSSQ-mmff94.pdb
REMARK  31 active torsions:
REMARK  status: ('A' for Active; 'I' for Inactive)
REMARK    1  A    between atoms: _1  and  _2
REMARK    2  A    between atoms: _2  and  _3
REMARK    3  A    between atoms: _2  and  _5
REMARK    4  A    between atoms: _5  and  _6
REMARK    5  A    between atoms: _6  and  _7
REMARK    6  A    between atoms: _7  and  _8
REMARK    7  A    between atoms: _8  and  _9
REMARK    8  A    between atoms: _23  and  _24
REMARK    9  A    between atoms: _24  and  _25
REMARK   10  A    between atoms: _24  and  _27
REMARK   11  A    between atoms: _27  and  _28
REMARK   12  A    between atoms: _28  and  _29
REMARK   13  A    between atoms: _28  and  _30
REMARK   14  A    between atoms: _42  and  _43
REMARK   15  A    between atoms: _43  and  _44
REMARK   16  A    between atoms: _43  and  _46
REMARK   17  A    between atoms: _46  and  _47
REMARK   18  A    between atoms: _47  and  _48
REMARK   19  A    between atoms: _59  and  _60
REMARK   20  A    between atoms: _60  and  _61
REMARK   21  A    between atoms: _60  and  _63
REMARK   22  A    between atoms: _63  and  _64
REMARK   23  A    between atoms: _70  and  _71
REMARK   24  A    between atoms: _71  and  _72
REMARK   25  A    between atoms: _71  and  _74
REMARK   26  A    between atoms: _74  and  _75
REMARK   27  A    between atoms: _81  and  _82
REMARK   28  A    between atoms: _82  and  _83
REMARK   29  A    between atoms: _82  and  _85
REMARK   30  A    between atoms: _85  and  _86
REMARK   31  A    between atoms: _86  and  _87
REMARK                            x       y       z     vdW  Elec       q    Type
REMARK                         _______ _______ _______ _____ _____    ______ ____
ROOT
ATOM      1  CA  GLN A   3       5.654  -2.131  27.082  0.00  0.00    +0.159 C 
ENDROOT
BRANCH   1   2
ATOM      2  C   GLN A   3       5.637  -3.624  27.473  0.00  0.00    +0.234 C 
ATOM      3  O   GLN A   3       6.677  -4.238  27.716  0.00  0.00    -0.274 OA
ATOM      4  N   SER A   4       4.411  -4.231  27.504  0.00  0.00    -0.301 N 
ATOM      5  H   SER A   4       3.547  -3.716  27.352  0.00  0.00    +0.150 HD
BRANCH   4   6
ATOM      6  CA  SER A   4       4.256  -5.664  27.802  0.00  0.00    +0.184 C 
BRANCH   6   7
ATOM      7  C   SER A   4       4.464  -6.442  26.489  0.00  0.00    +0.236 C 
ATOM      8  N   SER A   5       3.337  -6.647  25.732  0.00  0.00    -0.300 N 
ATOM      9  H   SER A   5       2.460  -6.184  25.968  0.00  0.00    +0.150 HD
ATOM     10  O   SER A   4       5.565  -6.895  26.173  0.00  0.00    -0.274 OA
BRANCH   8  11
ATOM     11  CA  SER A   5       3.383  -7.210  24.374  0.00  0.00    +0.184 C 
BRANCH  11  12
ATOM     12  C   SER A   5       4.006  -6.134  23.465  0.00  0.00    +0.236 C 
ATOM     13  N   GLN A   6       5.355  -6.245  23.237  0.00  0.00    -0.304 N 
ATOM     14  H   GLN A   6       5.886  -7.032  23.606  0.00  0.00    +0.149 HD
ATOM     15  O   SER A   5       3.331  -5.212  23.004  0.00  0.00    -0.274 OA
BRANCH  13  16
ATOM     16  CA  GLN A   6       6.075  -5.362  22.319  0.00  0.00    +0.136 C 
BRANCH  16  17
ATOM     17  C   GLN A   6       6.084  -6.065  20.966  0.00  0.00    +0.245 C 
ATOM     18  O   GLN A   6       6.013  -5.460  19.896  0.00  0.00    -0.299 OA
ENDBRANCH  16  17
BRANCH  16  19
ATOM     19  CB  GLN A   6       7.500  -5.080  22.807  0.00  0.00    +0.039 C 
BRANCH  19  20
ATOM     20  CG  GLN A   6       7.541  -4.589  24.255  0.00  0.00    +0.098 C 
BRANCH  20  21
ATOM     21  CD  GLN A   6       8.768  -5.025  25.027  0.00  0.00    +0.211 C 
ATOM     22  OE1 GLN A   6       9.905  -4.764  24.648  0.00  0.00    -0.276 OA
ATOM     23  NE2 GLN A   6       8.569  -5.807  26.121  0.00  0.00    -0.329 N 
ATOM     24 HE21 GLN A   6       7.668  -5.983  26.539  0.00  0.00    +0.145 HD
ATOM     25 HE22 GLN A   6       9.394  -6.090  26.637  0.00  0.00    +0.145 HD
ENDBRANCH  20  21
ENDBRANCH  19  20
ENDBRANCH  16  19
ENDBRANCH  13  16
ENDBRANCH  11  12
BRANCH  11  26
ATOM     26  CB  SER A   5       1.994  -7.630  23.875  0.00  0.00    +0.187 C 
BRANCH  26  27
ATOM     27  OG  SER A   5       1.987  -7.844  22.463  0.00  0.00    -0.393 OA
ATOM     28  H   SER A   5       1.056  -7.949  22.202  0.00  0.00    +0.209 HD
ENDBRANCH  26  27
ENDBRANCH  11  26
ENDBRANCH   8  11
ENDBRANCH   6   7
BRANCH   6  29
ATOM     29  CB  SER A   4       2.896  -5.987  28.436  0.00  0.00    +0.187 C 
BRANCH  29  30
ATOM     30  OG  SER A   4       2.630  -7.389  28.410  0.00  0.00    -0.393 OA
ATOM     31  H   SER A   4       3.399  -7.831  28.812  0.00  0.00    +0.209 HD
ENDBRANCH  29  30
ENDBRANCH   6  29
ENDBRANCH   4   6
ENDBRANCH   1   2
BRANCH   1  34
ATOM     32  C   LEU A   2       7.710  -0.940  26.322  0.00  0.00    +0.234 C 
ATOM     33  O   LEU A   2       7.615  -0.086  27.207  0.00  0.00    -0.274 OA
ATOM     34  N   GLN A   3       6.807  -1.968  26.196  0.00  0.00    -0.302 N 
ATOM     35  H   GLN A   3       6.874  -2.620  25.415  0.00  0.00    +0.150 HD
BRANCH  32  36
ATOM     36  CA  LEU A   2       8.836  -0.925  25.259  0.00  0.00    +0.159 C 
BRANCH  36  38
ATOM     37  C   LYS A   1       8.757  -1.486  22.847  0.00  0.00    +0.230 C 
ATOM     38  N   LEU A   2       8.196  -0.882  23.947  0.00  0.00    -0.303 N 
ATOM     39  H   LEU A   2       7.193  -0.728  23.952  0.00  0.00    +0.149 HD
ATOM     40  O   LYS A   1       9.904  -1.927  22.829  0.00  0.00    -0.274 OA
BRANCH  37  41
ATOM     41  CA  LYS A   1       7.810  -1.602  21.632  0.00  0.00    +0.138 C 
BRANCH  41  42
ATOM     42  N   LYS A   1       6.440  -1.268  22.052  0.00  0.00    -0.320 NA
ATOM     43  H1  LYS A   1       6.238  -0.301  21.792  0.00  0.00    +0.119 HD
ATOM     44  H2  LYS A   1       5.790  -1.822  21.488  0.00  0.00    +0.119 HD
ENDBRANCH  41  42
BRANCH  41  45
ATOM     45  CB  LYS A   1       8.267  -0.630  20.529  0.00  0.00    +0.028 C 
BRANCH  45  46
ATOM     46  CG  LYS A   1       7.207   0.437  20.243  0.00  0.00    +0.007 C 
BRANCH  46  47
ATOM     47  CD  LYS A   1       6.887   0.576  18.755  0.00  0.00    +0.051 C 
BRANCH  47  48
ATOM     48  CE  LYS A   1       5.378   0.492  18.562  0.00  0.00    +0.127 C 
BRANCH  48  49
ATOM     49  NZ  LYS A   1       4.745   1.778  18.916  0.00  0.00    +0.219 N 
ATOM     50  HZ1 LYS A   1       5.252   2.258  19.670  0.00  0.00    +0.199 HD
ATOM     51  HZ2 LYS A   1       4.785   2.397  18.091  0.00  0.00    +0.199 HD
ATOM     52  HZ3 LYS A   1       3.763   1.669  19.196  0.00  0.00    +0.199 HD
ENDBRANCH  48  49
ENDBRANCH  47  48
ENDBRANCH  46  47
ENDBRANCH  45  46
ENDBRANCH  41  45
ENDBRANCH  37  41
ENDBRANCH  36  38
BRANCH  36  53
ATOM     53  CB  LEU A   2       9.771   0.275  25.449  0.00  0.00    +0.034 C 
BRANCH  53  54
ATOM     54  CG  LEU A   2       9.561   1.402  24.414  0.00  0.00    -0.015 C 
ATOM     55  CD2 LEU A   2      10.884   2.005  23.937  0.00  0.00    +0.007 C 
ATOM     56  CD1 LEU A   2       8.680   2.501  25.010  0.00  0.00    +0.007 C 
ENDBRANCH  53  54
ENDBRANCH  36  53
ENDBRANCH  32  36
ENDBRANCH   1  34
BRANCH   1  57
ATOM     57  CB  GLN A   3       4.361  -1.726  26.357  0.00  0.00    +0.041 C 
BRANCH  57  58
ATOM     58  CG  GLN A   3       3.469  -0.796  27.177  0.00  0.00    +0.098 C 
BRANCH  58  59
ATOM     59  CD  GLN A   3       4.320   0.246  27.882  0.00  0.00    +0.211 C 
ATOM     60  NE2 GLN A   3       4.778   1.246  27.077  0.00  0.00    -0.329 N 
ATOM     61 HE21 GLN A   3       5.322   1.997  27.482  0.00  0.00    +0.145 HD
ATOM     62 HE22 GLN A   3       4.447   1.383  26.128  0.00  0.00    +0.145 HD
ATOM     63  OE1 GLN A   3       4.642   0.180  29.068  0.00  0.00    -0.276 OA
ENDBRANCH  58  59
ENDBRANCH  57  58
ENDBRANCH   1  57
TORSDOF 29
ENDMDL
MODEL 16
REMARK VINA RESULT:      -5.9      2.123      5.211
REMARK  Name = KLQSSQ-mmff94.pdb
REMARK  31 active torsions:
REMARK  status: ('A' for Active; 'I' for Inactive)
REMARK    1  A    between atoms: _1  and  _2
REMARK    2  A    between atoms: _2  and  _3
REMARK    3  A    between atoms: _2  and  _5
REMARK    4  A    between atoms: _5  and  _6
REMARK    5  A    between atoms: _6  and  _7
REMARK    6  A    between atoms: _7  and  _8
REMARK    7  A    between atoms: _8  and  _9
REMARK    8  A    between atoms: _23  and  _24
REMARK    9  A    between atoms: _24  and  _25
REMARK   10  A    between atoms: _24  and  _27
REMARK   11  A    between atoms: _27  and  _28
REMARK   12  A    between atoms: _28  and  _29
REMARK   13  A    between atoms: _28  and  _30
REMARK   14  A    between atoms: _42  and  _43
REMARK   15  A    between atoms: _43  and  _44
REMARK   16  A    between atoms: _43  and  _46
REMARK   17  A    between atoms: _46  and  _47
REMARK   18  A    between atoms: _47  and  _48
REMARK   19  A    between atoms: _59  and  _60
REMARK   20  A    between atoms: _60  and  _61
REMARK   21  A    between atoms: _60  and  _63
REMARK   22  A    between atoms: _63  and  _64
REMARK   23  A    between atoms: _70  and  _71
REMARK   24  A    between atoms: _71  and  _72
REMARK   25  A    between atoms: _71  and  _74
REMARK   26  A    between atoms: _74  and  _75
REMARK   27  A    between atoms: _81  and  _82
REMARK   28  A    between atoms: _82  and  _83
REMARK   29  A    between atoms: _82  and  _85
REMARK   30  A    between atoms: _85  and  _86
REMARK   31  A    between atoms: _86  and  _87
REMARK                            x       y       z     vdW  Elec       q    Type
REMARK                         _______ _______ _______ _____ _____    ______ ____
ROOT
ATOM      1  CA  GLN A   3       8.410  -1.031  24.415  0.00  0.00    +0.159 C 
ENDROOT
BRANCH   1   2
ATOM      2  C   GLN A   3       7.594  -0.774  25.700  0.00  0.00    +0.234 C 
ATOM      3  O   GLN A   3       8.116  -0.829  26.814  0.00  0.00    -0.274 OA
ATOM      4  N   SER A   4       6.262  -0.514  25.533  0.00  0.00    -0.301 N 
ATOM      5  H   SER A   4       5.838  -0.421  24.613  0.00  0.00    +0.150 HD
BRANCH   4   6
ATOM      6  CA  SER A   4       5.357  -0.311  26.675  0.00  0.00    +0.184 C 
BRANCH   6   7
ATOM      7  C   SER A   4       4.608  -1.635  26.924  0.00  0.00    +0.236 C 
ATOM      8  N   SER A   5       4.329  -2.382  25.806  0.00  0.00    -0.300 N 
ATOM      9  H   SER A   5       4.725  -2.132  24.901  0.00  0.00    +0.150 HD
ATOM     10  O   SER A   4       4.240  -1.967  28.052  0.00  0.00    -0.274 OA
BRANCH   8  11
ATOM     11  CA  SER A   5       3.784  -3.746  25.877  0.00  0.00    +0.184 C 
BRANCH  11  12
ATOM     12  C   SER A   5       4.945  -4.709  25.566  0.00  0.00    +0.236 C 
ATOM     13  N   GLN A   6       6.104  -4.130  25.110  0.00  0.00    -0.304 N 
ATOM     14  H   GLN A   6       6.194  -3.117  25.046  0.00  0.00    +0.149 HD
ATOM     15  O   SER A   5       4.817  -5.928  25.685  0.00  0.00    -0.274 OA
BRANCH  13  16
ATOM     16  CA  GLN A   6       7.325  -4.897  24.865  0.00  0.00    +0.136 C 
BRANCH  16  17
ATOM     17  C   GLN A   6       8.318  -4.480  25.944  0.00  0.00    +0.245 C 
ATOM     18  O   GLN A   6       8.268  -4.900  27.100  0.00  0.00    -0.299 OA
ENDBRANCH  16  17
BRANCH  16  19
ATOM     19  CB  GLN A   6       7.886  -4.634  23.464  0.00  0.00    +0.039 C 
BRANCH  19  20
ATOM     20  CG  GLN A   6       7.422  -5.670  22.439  0.00  0.00    +0.098 C 
BRANCH  20  21
ATOM     21  CD  GLN A   6       5.994  -5.487  21.969  0.00  0.00    +0.211 C 
ATOM     22  OE1 GLN A   6       5.654  -4.543  21.264  0.00  0.00    -0.276 OA
ATOM     23  NE2 GLN A   6       5.068  -6.366  22.438  0.00  0.00    -0.329 N 
ATOM     24 HE21 GLN A   6       5.289  -7.211  22.941  0.00  0.00    +0.145 HD
ATOM     25 HE22 GLN A   6       4.116  -6.241  22.114  0.00  0.00    +0.145 HD
ENDBRANCH  20  21
ENDBRANCH  19  20
ENDBRANCH  16  19
ENDBRANCH  13  16
ENDBRANCH  11  12
BRANCH  11  26
ATOM     26  CB  SER A   5       2.611  -3.951  24.911  0.00  0.00    +0.187 C 
BRANCH  26  27
ATOM     27  OG  SER A   5       3.026  -4.612  23.715  0.00  0.00    -0.393 OA
ATOM     28  H   SER A   5       2.364  -5.302  23.534  0.00  0.00    +0.209 HD
ENDBRANCH  26  27
ENDBRANCH  11  26
ENDBRANCH   8  11
ENDBRANCH   6   7
BRANCH   6  29
ATOM     29  CB  SER A   4       4.379   0.851  26.450  0.00  0.00    +0.187 C 
BRANCH  29  30
ATOM     30  OG  SER A   4       4.455   1.342  25.111  0.00  0.00    -0.393 OA
ATOM     31  H   SER A   4       4.224   2.287  25.143  0.00  0.00    +0.209 HD
ENDBRANCH  29  30
ENDBRANCH   6  29
ENDBRANCH   4   6
ENDBRANCH   1   2
BRANCH   1  34
ATOM     32  C   LEU A   2       7.797  -0.513  22.052  0.00  0.00    +0.234 C 
ATOM     33  O   LEU A   2       8.295  -1.560  21.631  0.00  0.00    -0.274 OA
ATOM     34  N   GLN A   3       7.803  -0.185  23.386  0.00  0.00    -0.302 N 
ATOM     35  H   GLN A   3       7.442   0.717  23.696  0.00  0.00    +0.150 HD
BRANCH  32  36
ATOM     36  CA  LEU A   2       7.139   0.536  21.123  0.00  0.00    +0.159 C 
BRANCH  36  38
ATOM     37  C   LYS A   1       6.744   2.830  21.973  0.00  0.00    +0.230 C 
ATOM     38  N   LEU A   2       7.612   1.851  21.548  0.00  0.00    -0.303 N 
ATOM     39  H   LEU A   2       8.574   1.890  21.866  0.00  0.00    +0.149 HD
ATOM     40  O   LYS A   1       5.525   2.754  21.844  0.00  0.00    -0.274 OA
BRANCH  37  41
ATOM     41  CA  LYS A   1       7.427   4.030  22.664  0.00  0.00    +0.138 C 
BRANCH  41  42
ATOM     42  N   LYS A   1       7.368   5.200  21.773  0.00  0.00    -0.320 NA
ATOM     43  H1  LYS A   1       6.788   4.973  20.963  0.00  0.00    +0.119 HD
ATOM     44  H2  LYS A   1       6.851   5.941  22.255  0.00  0.00    +0.119 HD
ENDBRANCH  41  42
BRANCH  41  45
ATOM     45  CB  LYS A   1       6.704   4.345  23.985  0.00  0.00    +0.028 C 
BRANCH  45  46
ATOM     46  CG  LYS A   1       7.645   4.227  25.186  0.00  0.00    +0.007 C 
BRANCH  46  47
ATOM     47  CD  LYS A   1       7.503   2.897  25.926  0.00  0.00    +0.051 C 
BRANCH  47  48
ATOM     48  CE  LYS A   1       7.058   3.171  27.357  0.00  0.00    +0.127 C 
BRANCH  48  49
ATOM     49  NZ  LYS A   1       7.429   2.042  28.234  0.00  0.00    +0.219 N 
ATOM     50  HZ1 LYS A   1       7.037   2.147  29.177  0.00  0.00    +0.199 HD
ATOM     51  HZ2 LYS A   1       7.024   1.178  27.839  0.00  0.00    +0.199 HD
ATOM     52  HZ3 LYS A   1       8.446   1.921  28.310  0.00  0.00    +0.199 HD
ENDBRANCH  48  49
ENDBRANCH  47  48
ENDBRANCH  46  47
ENDBRANCH  45  46
ENDBRANCH  41  45
ENDBRANCH  37  41
ENDBRANCH  36  38
BRANCH  36  53
ATOM     53  CB  LEU A   2       7.489   0.280  19.652  0.00  0.00    +0.034 C 
BRANCH  53  54
ATOM     54  CG  LEU A   2       6.272  -0.083  18.774  0.00  0.00    -0.015 C 
ATOM     55  CD2 LEU A   2       5.211   1.020  18.770  0.00  0.00    +0.007 C 
ATOM     56  CD1 LEU A   2       5.650  -1.393  19.260  0.00  0.00    +0.007 C 
ENDBRANCH  53  54
ENDBRANCH  36  53
ENDBRANCH  32  36
ENDBRANCH   1  34
BRANCH   1  57
ATOM     57  CB  GLN A   3       9.889  -0.661  24.605  0.00  0.00    +0.041 C 
BRANCH  57  58
ATOM     58  CG  GLN A   3      10.116   0.826  24.871  0.00  0.00    +0.098 C 
BRANCH  58  59
ATOM     59  CD  GLN A   3      10.499   1.528  23.580  0.00  0.00    +0.211 C 
ATOM     60  NE2 GLN A   3      10.814   2.846  23.722  0.00  0.00    -0.329 N 
ATOM     61 HE21 GLN A   3      11.115   3.373  22.912  0.00  0.00    +0.145 HD
ATOM     62 HE22 GLN A   3      10.949   3.286  24.626  0.00  0.00    +0.145 HD
ATOM     63  OE1 GLN A   3      10.469   0.992  22.473  0.00  0.00    -0.276 OA
ENDBRANCH  58  59
ENDBRANCH  57  58
ENDBRANCH   1  57
TORSDOF 29
ENDMDL
MODEL 17
REMARK VINA RESULT:      -5.9      2.365      6.525
REMARK  Name = KLQSSQ-mmff94.pdb
REMARK  31 active torsions:
REMARK  status: ('A' for Active; 'I' for Inactive)
REMARK    1  A    between atoms: _1  and  _2
REMARK    2  A    between atoms: _2  and  _3
REMARK    3  A    between atoms: _2  and  _5
REMARK    4  A    between atoms: _5  and  _6
REMARK    5  A    between atoms: _6  and  _7
REMARK    6  A    between atoms: _7  and  _8
REMARK    7  A    between atoms: _8  and  _9
REMARK    8  A    between atoms: _23  and  _24
REMARK    9  A    between atoms: _24  and  _25
REMARK   10  A    between atoms: _24  and  _27
REMARK   11  A    between atoms: _27  and  _28
REMARK   12  A    between atoms: _28  and  _29
REMARK   13  A    between atoms: _28  and  _30
REMARK   14  A    between atoms: _42  and  _43
REMARK   15  A    between atoms: _43  and  _44
REMARK   16  A    between atoms: _43  and  _46
REMARK   17  A    between atoms: _46  and  _47
REMARK   18  A    between atoms: _47  and  _48
REMARK   19  A    between atoms: _59  and  _60
REMARK   20  A    between atoms: _60  and  _61
REMARK   21  A    between atoms: _60  and  _63
REMARK   22  A    between atoms: _63  and  _64
REMARK   23  A    between atoms: _70  and  _71
REMARK   24  A    between atoms: _71  and  _72
REMARK   25  A    between atoms: _71  and  _74
REMARK   26  A    between atoms: _74  and  _75
REMARK   27  A    between atoms: _81  and  _82
REMARK   28  A    between atoms: _82  and  _83
REMARK   29  A    between atoms: _82  and  _85
REMARK   30  A    between atoms: _85  and  _86
REMARK   31  A    between atoms: _86  and  _87
REMARK                            x       y       z     vdW  Elec       q    Type
REMARK                         _______ _______ _______ _____ _____    ______ ____
ROOT
ATOM      1  CA  GLN A   3       7.484  -2.277  26.271  0.00  0.00    +0.159 C 
ENDROOT
BRANCH   1   2
ATOM      2  C   GLN A   3       8.282  -0.962  26.404  0.00  0.00    +0.234 C 
ATOM      3  O   GLN A   3       8.208  -0.264  27.415  0.00  0.00    -0.274 OA
ATOM      4  N   SER A   4       9.046  -0.604  25.327  0.00  0.00    -0.301 N 
ATOM      5  H   SER A   4       9.147  -1.201  24.510  0.00  0.00    +0.150 HD
BRANCH   4   6
ATOM      6  CA  SER A   4       9.809   0.654  25.295  0.00  0.00    +0.184 C 
BRANCH   6   7
ATOM      7  C   SER A   4       8.884   1.752  24.735  0.00  0.00    +0.236 C 
ATOM      8  N   SER A   5       7.552   1.624  25.041  0.00  0.00    -0.300 N 
ATOM      9  H   SER A   5       7.237   0.926  25.715  0.00  0.00    +0.150 HD
ATOM     10  O   SER A   4       9.314   2.653  24.013  0.00  0.00    -0.274 OA
BRANCH   8  11
ATOM     11  CA  SER A   5       6.563   2.670  24.742  0.00  0.00    +0.184 C 
BRANCH  11  12
ATOM     12  C   SER A   5       5.864   3.019  26.069  0.00  0.00    +0.236 C 
ATOM     13  N   GLN A   6       5.951   2.077  27.063  0.00  0.00    -0.304 N 
ATOM     14  H   GLN A   6       6.500   1.229  26.935  0.00  0.00    +0.149 HD
ATOM     15  O   SER A   5       5.235   4.070  26.206  0.00  0.00    -0.274 OA
BRANCH  13  16
ATOM     16  CA  GLN A   6       5.425   2.301  28.410  0.00  0.00    +0.136 C 
BRANCH  16  17
ATOM     17  C   GLN A   6       6.609   2.737  29.266  0.00  0.00    +0.245 C 
ATOM     18  O   GLN A   6       7.407   1.942  29.763  0.00  0.00    -0.299 OA
ENDBRANCH  16  17
BRANCH  16  19
ATOM     19  CB  GLN A   6       4.767   1.039  28.977  0.00  0.00    +0.039 C 
BRANCH  19  20
ATOM     20  CG  GLN A   6       4.863  -0.155  28.024  0.00  0.00    +0.098 C 
BRANCH  20  21
ATOM     21  CD  GLN A   6       4.228  -1.424  28.550  0.00  0.00    +0.211 C 
ATOM     22  OE1 GLN A   6       3.830  -1.526  29.706  0.00  0.00    -0.276 OA
ATOM     23  NE2 GLN A   6       4.197  -2.497  27.714  0.00  0.00    -0.329 N 
ATOM     24 HE21 GLN A   6       4.420  -2.459  26.731  0.00  0.00    +0.145 HD
ATOM     25 HE22 GLN A   6       3.764  -3.341  28.070  0.00  0.00    +0.145 HD
ENDBRANCH  20  21
ENDBRANCH  19  20
ENDBRANCH  16  19
ENDBRANCH  13  16
ENDBRANCH  11  12
BRANCH  11  26
ATOM     26  CB  SER A   5       5.554   2.224  23.677  0.00  0.00    +0.187 C 
BRANCH  26  27
ATOM     27  OG  SER A   5       4.247   2.060  24.229  0.00  0.00    -0.393 OA
ATOM     28  H   SER A   5       3.692   1.680  23.525  0.00  0.00    +0.209 HD
ENDBRANCH  26  27
ENDBRANCH  11  26
ENDBRANCH   8  11
ENDBRANCH   6   7
BRANCH   6  29
ATOM     29  CB  SER A   4      11.100   0.537  24.473  0.00  0.00    +0.187 C 
BRANCH  29  30
ATOM     30  OG  SER A   4      10.824   0.179  23.119  0.00  0.00    -0.393 OA
ATOM     31  H   SER A   4      11.248  -0.682  22.961  0.00  0.00    +0.209 HD
ENDBRANCH  29  30
ENDBRANCH   6  29
ENDBRANCH   4   6
ENDBRANCH   1   2
BRANCH   1  34
ATOM     32  C   LEU A   2       6.062  -2.079  24.231  0.00  0.00    +0.234 C 
ATOM     33  O   LEU A   2       5.132  -1.563  24.857  0.00  0.00    -0.274 OA
ATOM     34  N   GLN A   3       7.238  -2.447  24.839  0.00  0.00    -0.302 N 
ATOM     35  H   GLN A   3       7.962  -2.931  24.309  0.00  0.00    +0.150 HD
BRANCH  32  36
ATOM     36  CA  LEU A   2       5.987  -2.381  22.714  0.00  0.00    +0.159 C 
BRANCH  36  38
ATOM     37  C   LYS A   1       7.543  -0.637  21.893  0.00  0.00    +0.230 C 
ATOM     38  N   LEU A   2       6.266  -1.134  22.007  0.00  0.00    -0.303 N 
ATOM     39  H   LEU A   2       5.578  -0.859  21.315  0.00  0.00    +0.149 HD
ATOM     40  O   LYS A   1       8.499  -1.078  22.526  0.00  0.00    -0.274 OA
BRANCH  37  41
ATOM     41  CA  LYS A   1       7.690   0.509  20.868  0.00  0.00    +0.138 C 
BRANCH  41  42
ATOM     42  N   LYS A   1       8.865   1.324  21.217  0.00  0.00    -0.320 NA
ATOM     43  H1  LYS A   1       9.508   0.759  21.775  0.00  0.00    +0.119 HD
ATOM     44  H2  LYS A   1       9.384   1.520  20.356  0.00  0.00    +0.119 HD
ENDBRANCH  41  42
BRANCH  41  45
ATOM     45  CB  LYS A   1       7.866  -0.079  19.458  0.00  0.00    +0.028 C 
BRANCH  45  46
ATOM     46  CG  LYS A   1       6.861   0.517  18.468  0.00  0.00    +0.007 C 
BRANCH  46  47
ATOM     47  CD  LYS A   1       5.408   0.306  18.893  0.00  0.00    +0.051 C 
BRANCH  47  48
ATOM     48  CE  LYS A   1       4.693   1.650  18.899  0.00  0.00    +0.127 C 
BRANCH  48  49
ATOM     49  NZ  LYS A   1       4.545   2.146  20.282  0.00  0.00    +0.219 N 
ATOM     50  HZ1 LYS A   1       5.371   1.932  20.853  0.00  0.00    +0.199 HD
ATOM     51  HZ2 LYS A   1       4.464   3.174  20.251  0.00  0.00    +0.199 HD
ATOM     52  HZ3 LYS A   1       3.713   1.766  20.749  0.00  0.00    +0.199 HD
ENDBRANCH  48  49
ENDBRANCH  47  48
ENDBRANCH  46  47
ENDBRANCH  45  46
ENDBRANCH  41  45
ENDBRANCH  37  41
ENDBRANCH  36  38
BRANCH  36  53
ATOM     53  CB  LEU A   2       6.986  -3.473  22.310  0.00  0.00    +0.034 C 
BRANCH  53  54
ATOM     54  CG  LEU A   2       6.324  -4.805  21.900  0.00  0.00    -0.015 C 
ATOM     55  CD2 LEU A   2       5.063  -5.102  22.716  0.00  0.00    +0.007 C 
ATOM     56  CD1 LEU A   2       7.320  -5.955  22.057  0.00  0.00    +0.007 C 
ENDBRANCH  53  54
ENDBRANCH  36  53
ENDBRANCH  32  36
ENDBRANCH   1  34
BRANCH   1  57
ATOM     57  CB  GLN A   3       8.277  -3.472  26.822  0.00  0.00    +0.041 C 
BRANCH  57  58
ATOM     58  CG  GLN A   3       8.075  -4.758  26.022  0.00  0.00    +0.098 C 
BRANCH  58  59
ATOM     59  CD  GLN A   3       9.314  -5.051  25.195  0.00  0.00    +0.211 C 
ATOM     60  NE2 GLN A   3       9.772  -6.331  25.289  0.00  0.00    -0.329 N 
ATOM     61 HE21 GLN A   3      10.572  -6.612  24.738  0.00  0.00    +0.145 HD
ATOM     62 HE22 GLN A   3       9.243  -7.073  25.735  0.00  0.00    +0.145 HD
ATOM     63  OE1 GLN A   3       9.916  -4.202  24.537  0.00  0.00    -0.276 OA
ENDBRANCH  58  59
ENDBRANCH  57  58
ENDBRANCH   1  57
TORSDOF 29
ENDMDL
MODEL 18
REMARK VINA RESULT:      -5.9      2.896      6.959
REMARK  Name = KLQSSQ-mmff94.pdb
REMARK  31 active torsions:
REMARK  status: ('A' for Active; 'I' for Inactive)
REMARK    1  A    between atoms: _1  and  _2
REMARK    2  A    between atoms: _2  and  _3
REMARK    3  A    between atoms: _2  and  _5
REMARK    4  A    between atoms: _5  and  _6
REMARK    5  A    between atoms: _6  and  _7
REMARK    6  A    between atoms: _7  and  _8
REMARK    7  A    between atoms: _8  and  _9
REMARK    8  A    between atoms: _23  and  _24
REMARK    9  A    between atoms: _24  and  _25
REMARK   10  A    between atoms: _24  and  _27
REMARK   11  A    between atoms: _27  and  _28
REMARK   12  A    between atoms: _28  and  _29
REMARK   13  A    between atoms: _28  and  _30
REMARK   14  A    between atoms: _42  and  _43
REMARK   15  A    between atoms: _43  and  _44
REMARK   16  A    between atoms: _43  and  _46
REMARK   17  A    between atoms: _46  and  _47
REMARK   18  A    between atoms: _47  and  _48
REMARK   19  A    between atoms: _59  and  _60
REMARK   20  A    between atoms: _60  and  _61
REMARK   21  A    between atoms: _60  and  _63
REMARK   22  A    between atoms: _63  and  _64
REMARK   23  A    between atoms: _70  and  _71
REMARK   24  A    between atoms: _71  and  _72
REMARK   25  A    between atoms: _71  and  _74
REMARK   26  A    between atoms: _74  and  _75
REMARK   27  A    between atoms: _81  and  _82
REMARK   28  A    between atoms: _82  and  _83
REMARK   29  A    between atoms: _82  and  _85
REMARK   30  A    between atoms: _85  and  _86
REMARK   31  A    between atoms: _86  and  _87
REMARK                            x       y       z     vdW  Elec       q    Type
REMARK                         _______ _______ _______ _____ _____    ______ ____
ROOT
ATOM      1  CA  GLN A   3       9.035  -0.267  25.351  0.00  0.00    +0.159 C 
ENDROOT
BRANCH   1   2
ATOM      2  C   GLN A   3       8.055  -0.048  26.523  0.00  0.00    +0.234 C 
ATOM      3  O   GLN A   3       7.741  -0.968  27.279  0.00  0.00    -0.274 OA
ATOM      4  N   SER A   4       7.535   1.211  26.654  0.00  0.00    -0.301 N 
ATOM      5  H   SER A   4       7.829   1.984  26.062  0.00  0.00    +0.150 HD
BRANCH   4   6
ATOM      6  CA  SER A   4       6.544   1.542  27.690  0.00  0.00    +0.184 C 
BRANCH   6   7
ATOM      7  C   SER A   4       5.201   1.815  26.987  0.00  0.00    +0.236 C 
ATOM      8  N   SER A   5       4.942   3.128  26.683  0.00  0.00    -0.300 N 
ATOM      9  H   SER A   5       5.664   3.840  26.792  0.00  0.00    +0.150 HD
ATOM     10  O   SER A   4       4.393   0.912  26.763  0.00  0.00    -0.274 OA
BRANCH   8  11
ATOM     11  CA  SER A   5       3.799   3.543  25.857  0.00  0.00    +0.184 C 
BRANCH  11  12
ATOM     12  C   SER A   5       4.166   3.232  24.394  0.00  0.00    +0.236 C 
ATOM     13  N   GLN A   6       5.459   3.508  24.025  0.00  0.00    -0.304 N 
ATOM     14  H   GLN A   6       6.139   3.841  24.706  0.00  0.00    +0.149 HD
ATOM     15  O   SER A   5       3.330   2.796  23.601  0.00  0.00    -0.274 OA
BRANCH  13  16
ATOM     16  CA  GLN A   6       5.989   3.178  22.702  0.00  0.00    +0.136 C 
BRANCH  16  17
ATOM     17  C   GLN A   6       6.619   1.795  22.824  0.00  0.00    +0.245 C 
ATOM     18  O   GLN A   6       6.277   0.975  23.676  0.00  0.00    -0.299 OA
ENDBRANCH  16  17
BRANCH  16  19
ATOM     19  CB  GLN A   6       7.013   4.214  22.229  0.00  0.00    +0.039 C 
BRANCH  19  20
ATOM     20  CG  GLN A   6       7.476   5.142  23.354  0.00  0.00    +0.098 C 
BRANCH  20  21
ATOM     21  CD  GLN A   6       8.649   4.615  24.153  0.00  0.00    +0.211 C 
ATOM     22  OE1 GLN A   6       8.507   4.073  25.244  0.00  0.00    -0.276 OA
ATOM     23  NE2 GLN A   6       9.894   4.848  23.656  0.00  0.00    -0.329 N 
ATOM     24 HE21 GLN A   6      10.081   5.202  22.731  0.00  0.00    +0.145 HD
ATOM     25 HE22 GLN A   6      10.674   4.487  24.193  0.00  0.00    +0.145 HD
ENDBRANCH  20  21
ENDBRANCH  19  20
ENDBRANCH  16  19
ENDBRANCH  13  16
ENDBRANCH  11  12
BRANCH  11  26
ATOM     26  CB  SER A   5       3.456   5.026  26.046  0.00  0.00    +0.187 C 
BRANCH  26  27
ATOM     27  OG  SER A   5       2.342   5.414  25.240  0.00  0.00    -0.393 OA
ATOM     28  H   SER A   5       1.848   6.079  25.750  0.00  0.00    +0.209 HD
ENDBRANCH  26  27
ENDBRANCH  11  26
ENDBRANCH   8  11
ENDBRANCH   6   7
BRANCH   6  29
ATOM     29  CB  SER A   4       6.976   2.735  28.554  0.00  0.00    +0.187 C 
BRANCH  29  30
ATOM     30  OG  SER A   4       7.580   3.759  27.764  0.00  0.00    -0.393 OA
ATOM     31  H   SER A   4       7.697   3.394  26.869  0.00  0.00    +0.209 HD
ENDBRANCH  29  30
ENDBRANCH   6  29
ENDBRANCH   4   6
ENDBRANCH   1   2
BRANCH   1  34
ATOM     32  C   LEU A   2       8.245  -2.318  24.170  0.00  0.00    +0.234 C 
ATOM     33  O   LEU A   2       8.874  -3.065  24.923  0.00  0.00    -0.274 OA
ATOM     34  N   GLN A   3       8.263  -0.951  24.313  0.00  0.00    -0.302 N 
ATOM     35  H   GLN A   3       7.787  -0.356  23.636  0.00  0.00    +0.150 HD
BRANCH  32  36
ATOM     36  CA  LEU A   2       7.397  -2.840  22.984  0.00  0.00    +0.159 C 
BRANCH  36  38
ATOM     37  C   LYS A   1       6.526  -1.692  20.969  0.00  0.00    +0.230 C 
ATOM     38  N   LEU A   2       7.523  -1.871  21.898  0.00  0.00    -0.303 N 
ATOM     39  H   LEU A   2       8.170  -1.108  22.064  0.00  0.00    +0.149 HD
ATOM     40  O   LYS A   1       5.564  -2.447  20.856  0.00  0.00    -0.274 OA
BRANCH  37  41
ATOM     41  CA  LYS A   1       6.695  -0.434  20.089  0.00  0.00    +0.138 C 
BRANCH  41  42
ATOM     42  N   LYS A   1       8.129  -0.192  19.860  0.00  0.00    -0.320 NA
ATOM     43  H1  LYS A   1       8.564   0.088  20.741  0.00  0.00    +0.119 HD
ATOM     44  H2  LYS A   1       8.571  -1.087  19.632  0.00  0.00    +0.119 HD
ENDBRANCH  41  42
BRANCH  41  45
ATOM     45  CB  LYS A   1       5.983  -0.647  18.742  0.00  0.00    +0.028 C 
BRANCH  45  46
ATOM     46  CG  LYS A   1       5.335   0.644  18.235  0.00  0.00    +0.007 C 
BRANCH  46  47
ATOM     47  CD  LYS A   1       5.106   1.671  19.344  0.00  0.00    +0.051 C 
BRANCH  47  48
ATOM     48  CE  LYS A   1       3.632   2.054  19.368  0.00  0.00    +0.127 C 
BRANCH  48  49
ATOM     49  NZ  LYS A   1       3.323   2.824  20.590  0.00  0.00    +0.219 N 
ATOM     50  HZ1 LYS A   1       4.015   3.563  20.759  0.00  0.00    +0.199 HD
ATOM     51  HZ2 LYS A   1       2.414   3.294  20.456  0.00  0.00    +0.199 HD
ATOM     52  HZ3 LYS A   1       3.264   2.229  21.425  0.00  0.00    +0.199 HD
ENDBRANCH  48  49
ENDBRANCH  47  48
ENDBRANCH  46  47
ENDBRANCH  45  46
ENDBRANCH  41  45
ENDBRANCH  37  41
ENDBRANCH  36  38
BRANCH  36  53
ATOM     53  CB  LEU A   2       7.862  -4.230  22.532  0.00  0.00    +0.034 C 
BRANCH  53  54
ATOM     54  CG  LEU A   2       6.783  -5.325  22.671  0.00  0.00    -0.015 C 
ATOM     55  CD2 LEU A   2       6.306  -5.844  21.312  0.00  0.00    +0.007 C 
ATOM     56  CD1 LEU A   2       5.590  -4.787  23.463  0.00  0.00    +0.007 C 
ENDBRANCH  53  54
ENDBRANCH  36  53
ENDBRANCH  32  36
ENDBRANCH   1  34
BRANCH   1  57
ATOM     57  CB  GLN A   3       9.580   1.068  24.818  0.00  0.00    +0.041 C 
BRANCH  57  58
ATOM     58  CG  GLN A   3      10.763   0.906  23.866  0.00  0.00    +0.098 C 
BRANCH  58  59
ATOM     59  CD  GLN A   3      10.261   0.746  22.441  0.00  0.00    +0.211 C 
ATOM     60  NE2 GLN A   3      10.007   1.918  21.793  0.00  0.00    -0.329 N 
ATOM     61 HE21 GLN A   3       9.704   1.894  20.828  0.00  0.00    +0.145 HD
ATOM     62 HE22 GLN A   3      10.286   2.821  22.161  0.00  0.00    +0.145 HD
ATOM     63  OE1 GLN A   3      10.028  -0.341  21.913  0.00  0.00    -0.276 OA
ENDBRANCH  58  59
ENDBRANCH  57  58
ENDBRANCH   1  57
TORSDOF 29
ENDMDL
MODEL 19
REMARK VINA RESULT:      -5.9      2.129      5.614
REMARK  Name = KLQSSQ-mmff94.pdb
REMARK  31 active torsions:
REMARK  status: ('A' for Active; 'I' for Inactive)
REMARK    1  A    between atoms: _1  and  _2
REMARK    2  A    between atoms: _2  and  _3
REMARK    3  A    between atoms: _2  and  _5
REMARK    4  A    between atoms: _5  and  _6
REMARK    5  A    between atoms: _6  and  _7
REMARK    6  A    between atoms: _7  and  _8
REMARK    7  A    between atoms: _8  and  _9
REMARK    8  A    between atoms: _23  and  _24
REMARK    9  A    between atoms: _24  and  _25
REMARK   10  A    between atoms: _24  and  _27
REMARK   11  A    between atoms: _27  and  _28
REMARK   12  A    between atoms: _28  and  _29
REMARK   13  A    between atoms: _28  and  _30
REMARK   14  A    between atoms: _42  and  _43
REMARK   15  A    between atoms: _43  and  _44
REMARK   16  A    between atoms: _43  and  _46
REMARK   17  A    between atoms: _46  and  _47
REMARK   18  A    between atoms: _47  and  _48
REMARK   19  A    between atoms: _59  and  _60
REMARK   20  A    between atoms: _60  and  _61
REMARK   21  A    between atoms: _60  and  _63
REMARK   22  A    between atoms: _63  and  _64
REMARK   23  A    between atoms: _70  and  _71
REMARK   24  A    between atoms: _71  and  _72
REMARK   25  A    between atoms: _71  and  _74
REMARK   26  A    between atoms: _74  and  _75
REMARK   27  A    between atoms: _81  and  _82
REMARK   28  A    between atoms: _82  and  _83
REMARK   29  A    between atoms: _82  and  _85
REMARK   30  A    between atoms: _85  and  _86
REMARK   31  A    between atoms: _86  and  _87
REMARK                            x       y       z     vdW  Elec       q    Type
REMARK                         _______ _______ _______ _____ _____    ______ ____
ROOT
ATOM      1  CA  GLN A   3       7.650  -0.416  21.464  0.00  0.00    +0.159 C 
ENDROOT
BRANCH   1   2
ATOM      2  C   GLN A   3       6.725  -1.618  21.178  0.00  0.00    +0.234 C 
ATOM      3  O   GLN A   3       5.869  -1.575  20.294  0.00  0.00    -0.274 OA
ATOM      4  N   SER A   4       6.889  -2.716  21.978  0.00  0.00    -0.301 N 
ATOM      5  H   SER A   4       7.626  -2.772  22.677  0.00  0.00    +0.150 HD
BRANCH   4   6
ATOM      6  CA  SER A   4       6.034  -3.907  21.854  0.00  0.00    +0.184 C 
BRANCH   6   7
ATOM      7  C   SER A   4       5.083  -3.932  23.066  0.00  0.00    +0.236 C 
ATOM      8  N   SER A   5       4.292  -5.048  23.181  0.00  0.00    -0.300 N 
ATOM      9  H   SER A   5       4.441  -5.856  22.579  0.00  0.00    +0.150 HD
ATOM     10  O   SER A   4       5.006  -2.982  23.847  0.00  0.00    -0.274 OA
BRANCH   8  11
ATOM     11  CA  SER A   5       3.462  -5.316  24.366  0.00  0.00    +0.184 C 
BRANCH  11  12
ATOM     12  C   SER A   5       4.371  -6.000  25.404  0.00  0.00    +0.236 C 
ATOM     13  N   GLN A   6       5.147  -5.166  26.169  0.00  0.00    -0.304 N 
ATOM     14  H   GLN A   6       5.069  -4.154  26.086  0.00  0.00    +0.149 HD
ATOM     15  O   SER A   5       4.419  -7.227  25.505  0.00  0.00    -0.274 OA
BRANCH  13  16
ATOM     16  CA  GLN A   6       5.988  -5.654  27.263  0.00  0.00    +0.136 C 
BRANCH  16  17
ATOM     17  C   GLN A   6       5.509  -4.942  28.523  0.00  0.00    +0.245 C 
ATOM     18  O   GLN A   6       5.942  -5.203  29.646  0.00  0.00    -0.299 OA
ENDBRANCH  16  17
BRANCH  16  19
ATOM     19  CB  GLN A   6       7.472  -5.379  27.001  0.00  0.00    +0.039 C 
BRANCH  19  20
ATOM     20  CG  GLN A   6       7.778  -5.161  25.518  0.00  0.00    +0.098 C 
BRANCH  20  21
ATOM     21  CD  GLN A   6       9.173  -4.643  25.239  0.00  0.00    +0.211 C 
ATOM     22  OE1 GLN A   6       9.373  -3.599  24.628  0.00  0.00    -0.276 OA
ATOM     23  NE2 GLN A   6      10.216  -5.433  25.613  0.00  0.00    -0.329 N 
ATOM     24 HE21 GLN A   6      10.130  -6.252  26.194  0.00  0.00    +0.145 HD
ATOM     25 HE22 GLN A   6      11.146  -5.077  25.429  0.00  0.00    +0.145 HD
ENDBRANCH  20  21
ENDBRANCH  19  20
ENDBRANCH  16  19
ENDBRANCH  13  16
ENDBRANCH  11  12
BRANCH  11  26
ATOM     26  CB  SER A   5       2.241  -6.181  24.033  0.00  0.00    +0.187 C 
BRANCH  26  27
ATOM     27  OG  SER A   5       2.580  -7.249  23.146  0.00  0.00    -0.393 OA
ATOM     28  H   SER A   5       1.787  -7.806  23.065  0.00  0.00    +0.209 HD
ENDBRANCH  26  27
ENDBRANCH  11  26
ENDBRANCH   8  11
ENDBRANCH   6   7
BRANCH   6  29
ATOM     29  CB  SER A   4       6.848  -5.205  21.756  0.00  0.00    +0.187 C 
BRANCH  29  30
ATOM     30  OG  SER A   4       6.030  -6.303  21.353  0.00  0.00    -0.393 OA
ATOM     31  H   SER A   4       5.678  -6.707  22.166  0.00  0.00    +0.209 HD
ENDBRANCH  29  30
ENDBRANCH   6  29
ENDBRANCH   4   6
ENDBRANCH   1   2
BRANCH   1  34
ATOM     32  C   LEU A   2       6.630   1.575  22.569  0.00  0.00    +0.234 C 
ATOM     33  O   LEU A   2       6.699   2.254  21.542  0.00  0.00    -0.274 OA
ATOM     34  N   GLN A   3       7.061   0.271  22.614  0.00  0.00    -0.302 N 
ATOM     35  H   GLN A   3       7.051  -0.245  23.493  0.00  0.00    +0.150 HD
BRANCH  32  36
ATOM     36  CA  LEU A   2       6.074   2.126  23.905  0.00  0.00    +0.159 C 
BRANCH  36  38
ATOM     37  C   LYS A   1       5.591   0.422  25.636  0.00  0.00    +0.230 C 
ATOM     38  N   LEU A   2       6.493   1.210  24.962  0.00  0.00    -0.303 N 
ATOM     39  H   LEU A   2       7.461   0.911  24.925  0.00  0.00    +0.149 HD
ATOM     40  O   LYS A   1       4.373   0.562  25.549  0.00  0.00    -0.274 OA
BRANCH  37  41
ATOM     41  CA  LYS A   1       6.234  -0.690  26.494  0.00  0.00    +0.138 C 
BRANCH  41  42
ATOM     42  N   LYS A   1       7.013  -1.584  25.623  0.00  0.00    -0.320 NA
ATOM     43  H1  LYS A   1       6.381  -2.257  25.186  0.00  0.00    +0.119 HD
ATOM     44  H2  LYS A   1       7.375  -1.032  24.841  0.00  0.00    +0.119 HD
ENDBRANCH  41  42
BRANCH  41  45
ATOM     45  CB  LYS A   1       7.158  -0.057  27.549  0.00  0.00    +0.028 C 
BRANCH  45  46
ATOM     46  CG  LYS A   1       6.374   0.803  28.544  0.00  0.00    +0.007 C 
BRANCH  46  47
ATOM     47  CD  LYS A   1       7.127   2.064  28.966  0.00  0.00    +0.051 C 
BRANCH  47  48
ATOM     48  CE  LYS A   1       7.621   1.891  30.396  0.00  0.00    +0.127 C 
BRANCH  48  49
ATOM     49  NZ  LYS A   1       8.991   1.340  30.401  0.00  0.00    +0.219 N 
ATOM     50  HZ1 LYS A   1       8.989   0.313  30.385  0.00  0.00    +0.199 HD
ATOM     51  HZ2 LYS A   1       9.469   1.649  29.540  0.00  0.00    +0.199 HD
ATOM     52  HZ3 LYS A   1       9.539   1.655  31.210  0.00  0.00    +0.199 HD
ENDBRANCH  48  49
ENDBRANCH  47  48
ENDBRANCH  46  47
ENDBRANCH  45  46
ENDBRANCH  41  45
ENDBRANCH  37  41
ENDBRANCH  36  38
BRANCH  36  53
ATOM     53  CB  LEU A   2       6.584   3.546  24.179  0.00  0.00    +0.034 C 
BRANCH  53  54
ATOM     54  CG  LEU A   2       7.826   3.598  25.094  0.00  0.00    -0.015 C 
ATOM     55  CD2 LEU A   2       7.663   4.602  26.238  0.00  0.00    +0.007 C 
ATOM     56  CD1 LEU A   2       9.066   3.954  24.272  0.00  0.00    +0.007 C 
ENDBRANCH  53  54
ENDBRANCH  36  53
ENDBRANCH  32  36
ENDBRANCH   1  34
BRANCH   1  57
ATOM     57  CB  GLN A   3       9.080  -0.874  21.791  0.00  0.00    +0.041 C 
BRANCH  57  58
ATOM     58  CG  GLN A   3       9.997   0.265  22.235  0.00  0.00    +0.098 C 
BRANCH  58  59
ATOM     59  CD  GLN A   3      10.081   0.297  23.751  0.00  0.00    +0.211 C 
ATOM     60  NE2 GLN A   3      11.229   0.841  24.245  0.00  0.00    -0.329 N 
ATOM     61 HE21 GLN A   3      11.343   0.931  25.247  0.00  0.00    +0.145 HD
ATOM     62 HE22 GLN A   3      11.896   1.338  23.665  0.00  0.00    +0.145 HD
ATOM     63  OE1 GLN A   3       9.229  -0.185  24.496  0.00  0.00    -0.276 OA
ENDBRANCH  58  59
ENDBRANCH  57  58
ENDBRANCH   1  57
TORSDOF 29
ENDMDL
MODEL 20
REMARK VINA RESULT:      -5.9      2.321      8.142
REMARK  Name = KLQSSQ-mmff94.pdb
REMARK  31 active torsions:
REMARK  status: ('A' for Active; 'I' for Inactive)
REMARK    1  A    between atoms: _1  and  _2
REMARK    2  A    between atoms: _2  and  _3
REMARK    3  A    between atoms: _2  and  _5
REMARK    4  A    between atoms: _5  and  _6
REMARK    5  A    between atoms: _6  and  _7
REMARK    6  A    between atoms: _7  and  _8
REMARK    7  A    between atoms: _8  and  _9
REMARK    8  A    between atoms: _23  and  _24
REMARK    9  A    between atoms: _24  and  _25
REMARK   10  A    between atoms: _24  and  _27
REMARK   11  A    between atoms: _27  and  _28
REMARK   12  A    between atoms: _28  and  _29
REMARK   13  A    between atoms: _28  and  _30
REMARK   14  A    between atoms: _42  and  _43
REMARK   15  A    between atoms: _43  and  _44
REMARK   16  A    between atoms: _43  and  _46
REMARK   17  A    between atoms: _46  and  _47
REMARK   18  A    between atoms: _47  and  _48
REMARK   19  A    between atoms: _59  and  _60
REMARK   20  A    between atoms: _60  and  _61
REMARK   21  A    between atoms: _60  and  _63
REMARK   22  A    between atoms: _63  and  _64
REMARK   23  A    between atoms: _70  and  _71
REMARK   24  A    between atoms: _71  and  _72
REMARK   25  A    between atoms: _71  and  _74
REMARK   26  A    between atoms: _74  and  _75
REMARK   27  A    between atoms: _81  and  _82
REMARK   28  A    between atoms: _82  and  _83
REMARK   29  A    between atoms: _82  and  _85
REMARK   30  A    between atoms: _85  and  _86
REMARK   31  A    between atoms: _86  and  _87
REMARK                            x       y       z     vdW  Elec       q    Type
REMARK                         _______ _______ _______ _____ _____    ______ ____
ROOT
ATOM      1  CA  GLN A   3       6.807  -2.878  26.615  0.00  0.00    +0.159 C 
ENDROOT
BRANCH   1   2
ATOM      2  C   GLN A   3       6.178  -1.498  26.901  0.00  0.00    +0.234 C 
ATOM      3  O   GLN A   3       4.967  -1.307  26.789  0.00  0.00    -0.274 OA
ATOM      4  N   SER A   4       7.042  -0.497  27.254  0.00  0.00    -0.301 N 
ATOM      5  H   SER A   4       8.036  -0.663  27.394  0.00  0.00    +0.150 HD
BRANCH   4   6
ATOM      6  CA  SER A   4       6.585   0.881  27.495  0.00  0.00    +0.184 C 
BRANCH   6   7
ATOM      7  C   SER A   4       7.283   1.794  26.469  0.00  0.00    +0.236 C 
ATOM      8  N   SER A   5       8.253   1.199  25.702  0.00  0.00    -0.300 N 
ATOM      9  H   SER A   5       8.387   0.189  25.724  0.00  0.00    +0.150 HD
ATOM     10  O   SER A   4       7.017   2.995  26.387  0.00  0.00    -0.274 OA
BRANCH   8  11
ATOM     11  CA  SER A   5       8.889   1.873  24.560  0.00  0.00    +0.184 C 
BRANCH  11  12
ATOM     12  C   SER A   5       7.968   1.659  23.344  0.00  0.00    +0.236 C 
ATOM     13  N   GLN A   6       8.106   0.462  22.687  0.00  0.00    -0.304 N 
ATOM     14  H   GLN A   6       8.740  -0.256  23.032  0.00  0.00    +0.149 HD
ATOM     15  O   SER A   5       7.185   2.534  22.970  0.00  0.00    -0.274 OA
BRANCH  13  16
ATOM     16  CA  GLN A   6       7.238   0.068  21.576  0.00  0.00    +0.136 C 
BRANCH  16  17
ATOM     17  C   GLN A   6       7.185  -1.455  21.592  0.00  0.00    +0.245 C 
ATOM     18  O   GLN A   6       6.177  -2.088  21.905  0.00  0.00    -0.299 OA
ENDBRANCH  16  17
BRANCH  16  19
ATOM     19  CB  GLN A   6       7.764   0.591  20.236  0.00  0.00    +0.039 C 
BRANCH  19  20
ATOM     20  CG  GLN A   6       7.138  -0.125  19.037  0.00  0.00    +0.098 C 
BRANCH  20  21
ATOM     21  CD  GLN A   6       6.063   0.671  18.329  0.00  0.00    +0.211 C 
ATOM     22  OE1 GLN A   6       6.301   1.359  17.342  0.00  0.00    -0.276 OA
ATOM     23  NE2 GLN A   6       4.822   0.673  18.886  0.00  0.00    -0.329 N 
ATOM     24 HE21 GLN A   6       4.534   0.064  19.636  0.00  0.00    +0.145 HD
ATOM     25 HE22 GLN A   6       4.105   1.202  18.402  0.00  0.00    +0.145 HD
ENDBRANCH  20  21
ENDBRANCH  19  20
ENDBRANCH  16  19
ENDBRANCH  13  16
ENDBRANCH  11  12
BRANCH  11  26
ATOM     26  CB  SER A   5      10.304   1.346  24.292  0.00  0.00    +0.187 C 
BRANCH  26  27
ATOM     27  OG  SER A   5      10.398  -0.056  24.547  0.00  0.00    -0.393 OA
ATOM     28  H   SER A   5       9.698  -0.270  25.188  0.00  0.00    +0.209 HD
ENDBRANCH  26  27
ENDBRANCH  11  26
ENDBRANCH   8  11
ENDBRANCH   6   7
BRANCH   6  29
ATOM     29  CB  SER A   4       6.855   1.345  28.933  0.00  0.00    +0.187 C 
BRANCH  29  30
ATOM     30  OG  SER A   4       7.700   2.495  28.958  0.00  0.00    -0.393 OA
ATOM     31  H   SER A   4       8.582   2.205  28.665  0.00  0.00    +0.209 HD
ENDBRANCH  29  30
ENDBRANCH   6  29
ENDBRANCH   4   6
ENDBRANCH   1   2
BRANCH   1  34
ATOM     32  C   LEU A   2       5.990  -5.027  27.586  0.00  0.00    +0.234 C 
ATOM     33  O   LEU A   2       7.107  -5.326  28.016  0.00  0.00    -0.274 OA
ATOM     34  N   GLN A   3       5.758  -3.857  26.904  0.00  0.00    -0.302 N 
ATOM     35  H   GLN A   3       4.839  -3.668  26.503  0.00  0.00    +0.150 HD
BRANCH  32  36
ATOM     36  CA  LEU A   2       4.754  -5.944  27.751  0.00  0.00    +0.159 C 
BRANCH  36  38
ATOM     37  C   LYS A   1       3.403  -6.724  25.826  0.00  0.00    +0.230 C 
ATOM     38  N   LEU A   2       4.597  -6.692  26.506  0.00  0.00    -0.303 N 
ATOM     39  H   LEU A   2       5.451  -6.866  25.988  0.00  0.00    +0.149 HD
ATOM     40  O   LYS A   1       2.347  -6.306  26.295  0.00  0.00    -0.274 OA
BRANCH  37  41
ATOM     41  CA  LYS A   1       3.500  -7.300  24.396  0.00  0.00    +0.138 C 
BRANCH  41  42
ATOM     42  N   LYS A   1       2.651  -8.498  24.298  0.00  0.00    -0.320 NA
ATOM     43  H1  LYS A   1       2.186  -8.504  23.389  0.00  0.00    +0.119 HD
ATOM     44  H2  LYS A   1       3.262  -9.320  24.275  0.00  0.00    +0.119 HD
ENDBRANCH  41  42
BRANCH  41  45
ATOM     45  CB  LYS A   1       3.026  -6.244  23.382  0.00  0.00    +0.028 C 
BRANCH  45  46
ATOM     46  CG  LYS A   1       4.083  -5.158  23.163  0.00  0.00    +0.007 C 
BRANCH  46  47
ATOM     47  CD  LYS A   1       5.510  -5.707  23.156  0.00  0.00    +0.051 C 
BRANCH  47  48
ATOM     48  CE  LYS A   1       6.051  -5.663  21.733  0.00  0.00    +0.127 C 
BRANCH  48  49
ATOM     49  NZ  LYS A   1       7.372  -5.002  21.708  0.00  0.00    +0.219 N 
ATOM     50  HZ1 LYS A   1       7.380  -4.191  21.078  0.00  0.00    +0.199 HD
ATOM     51  HZ2 LYS A   1       7.573  -4.643  22.655  0.00  0.00    +0.199 HD
ATOM     52  HZ3 LYS A   1       8.126  -5.641  21.433  0.00  0.00    +0.199 HD
ENDBRANCH  48  49
ENDBRANCH  47  48
ENDBRANCH  46  47
ENDBRANCH  45  46
ENDBRANCH  41  45
ENDBRANCH  37  41
ENDBRANCH  36  38
BRANCH  36  53
ATOM     53  CB  LEU A   2       4.917  -6.896  28.942  0.00  0.00    +0.034 C 
BRANCH  53  54
ATOM     54  CG  LEU A   2       3.778  -6.798  29.980  0.00  0.00    -0.015 C 
ATOM     55  CD2 LEU A   2       2.552  -7.619  29.574  0.00  0.00    +0.007 C 
ATOM     56  CD1 LEU A   2       3.375  -5.336  30.178  0.00  0.00    +0.007 C 
ENDBRANCH  53  54
ENDBRANCH  36  53
ENDBRANCH  32  36
ENDBRANCH   1  34
BRANCH   1  57
ATOM     57  CB  GLN A   3       7.260  -2.996  25.152  0.00  0.00    +0.041 C 
BRANCH  57  58
ATOM     58  CG  GLN A   3       8.762  -3.228  24.996  0.00  0.00    +0.098 C 
BRANCH  58  59
ATOM     59  CD  GLN A   3       9.069  -4.712  25.108  0.00  0.00    +0.211 C 
ATOM     60  NE2 GLN A   3       9.613  -5.092  26.298  0.00  0.00    -0.329 N 
ATOM     61 HE21 GLN A   3       9.811  -6.071  26.460  0.00  0.00    +0.145 HD
ATOM     62 HE22 GLN A   3       9.655  -4.479  27.104  0.00  0.00    +0.145 HD
ATOM     63  OE1 GLN A   3       8.914  -5.515  24.188  0.00  0.00    -0.276 OA
ENDBRANCH  58  59
ENDBRANCH  57  58
ENDBRANCH   1  57
TORSDOF 29
ENDMDL
