REMARK  Name = MLQSAD-mmff94.pdb
REMARK  29 active torsions:
REMARK  status: ('A' for Active; 'I' for Inactive)
REMARK    1  A    between atoms: _1  and  _2
REMARK    2  A    between atoms: _2  and  _3
REMARK    3  A    between atoms: _2  and  _5
REMARK    4  A    between atoms: _5  and  _6
REMARK    5  A    between atoms: _6  and  _7
REMARK    6  A    between atoms: _7  and  _8
REMARK    7  A    between atoms: _18  and  _19
REMARK    8  A    between atoms: _19  and  _20
REMARK    9  A    between atoms: _19  and  _22
REMARK   10  A    between atoms: _22  and  _23
REMARK   11  A    between atoms: _23  and  _24
REMARK   12  A    between atoms: _23  and  _25
REMARK   13  A    between atoms: _37  and  _38
REMARK   14  A    between atoms: _38  and  _39
REMARK   15  A    between atoms: _38  and  _41
REMARK   16  A    between atoms: _41  and  _42
REMARK   17  A    between atoms: _42  and  _43
REMARK   18  A    between atoms: _54  and  _55
REMARK   19  A    between atoms: _55  and  _56
REMARK   20  A    between atoms: _55  and  _58
REMARK   21  A    between atoms: _58  and  _59
REMARK   22  A    between atoms: _65  and  _66
REMARK   23  A    between atoms: _66  and  _67
REMARK   24  A    between atoms: _66  and  _69
REMARK   25  A    between atoms: _75  and  _76
REMARK   26  A    between atoms: _76  and  _77
REMARK   27  A    between atoms: _76  and  _79
REMARK   28  A    between atoms: _79  and  _80
REMARK   29  A    between atoms: _80  and  _81
REMARK                            x       y       z     vdW  Elec       q    Type
REMARK                         _______ _______ _______ _____ _____    ______ ____
ROOT
ATOM      1  CA  GLN A   3       7.297   3.684  -0.932  0.00  0.00    +0.159 C 
ENDROOT
BRANCH   1   3
ATOM      2  C   LEU A   2       5.483   2.043  -1.405  0.00  0.00    +0.234 C 
ATOM      3  N   GLN A   3       6.768   2.322  -1.006  0.00  0.00    -0.302 N 
ATOM      4  H   GLN A   3       7.379   1.576  -0.680  0.00  0.00    +0.150 HD
ATOM      5  O   LEU A   2       4.693   2.918  -1.759  0.00  0.00    -0.274 OA
BRANCH   2   6
ATOM      6  CA  LEU A   2       5.113   0.544  -1.413  0.00  0.00    +0.159 C 
BRANCH   6   8
ATOM      7  C   MET A   1       2.927  -0.497  -0.841  0.00  0.00    +0.230 C 
ATOM      8  N   LEU A   2       3.657   0.466  -1.493  0.00  0.00    -0.303 N 
ATOM      9  H   LEU A   2       3.187   1.270  -1.900  0.00  0.00    +0.149 HD
ATOM     10  O   MET A   1       3.442  -1.403  -0.189  0.00  0.00    -0.274 OA
BRANCH   7  11
ATOM     11  CA  MET A   1       1.396  -0.366  -0.994  0.00  0.00    +0.138 C 
BRANCH  11  12
ATOM     12  N   MET A   1       0.807  -1.719  -1.061  0.00  0.00    -0.320 NA
ATOM     13  H1  MET A   1       1.239  -2.218  -1.842  0.00  0.00    +0.119 HD
ATOM     14  H2  MET A   1       1.140  -2.232  -0.237  0.00  0.00    +0.119 HD
ENDBRANCH  11  12
BRANCH  11  15
ATOM     15  CB  MET A   1       0.844   0.436   0.191  0.00  0.00    +0.038 C 
BRANCH  15  16
ATOM     16  CG  MET A   1      -0.678   0.566   0.152  0.00  0.00    +0.071 C 
BRANCH  16  17
ATOM     17  SD  MET A   1      -1.245   1.617   1.531  0.00  0.00    -0.164 S 
ATOM     18  CE  MET A   1      -3.024   1.328   1.374  0.00  0.00    +0.084 C 
ENDBRANCH  16  17
ENDBRANCH  15  16
ENDBRANCH  11  15
ENDBRANCH   7  11
ENDBRANCH   6   8
BRANCH   6  19
ATOM     19  CB  LEU A   2       5.796  -0.141  -2.609  0.00  0.00    +0.034 C 
BRANCH  19  20
ATOM     20  CG  LEU A   2       5.671  -1.677  -2.656  0.00  0.00    -0.015 C 
ATOM     21  CD2 LEU A   2       6.409  -2.353  -1.499  0.00  0.00    +0.007 C 
ATOM     22  CD1 LEU A   2       6.224  -2.200  -3.985  0.00  0.00    +0.007 C 
ENDBRANCH  19  20
ENDBRANCH   6  19
ENDBRANCH   2   6
ENDBRANCH   1   3
BRANCH   1  23
ATOM     23  C   GLN A   3       8.834   3.546  -0.914  0.00  0.00    +0.234 C 
ATOM     24  N   SER A   4       9.535   4.635  -1.361  0.00  0.00    -0.301 N 
ATOM     25  H   SER A   4       9.061   5.493  -1.639  0.00  0.00    +0.150 HD
ATOM     26  O   GLN A   3       9.394   2.530  -0.500  0.00  0.00    -0.274 OA
BRANCH  24  27
ATOM     27  CA  SER A   4      10.997   4.724  -1.261  0.00  0.00    +0.184 C 
BRANCH  27  28
ATOM     28  C   SER A   4      11.370   6.215  -1.321  0.00  0.00    +0.236 C 
ATOM     29  O   SER A   4      10.527   7.076  -1.578  0.00  0.00    -0.274 OA
ATOM     30  N   ALA A   5      12.678   6.524  -1.027  0.00  0.00    -0.303 N 
ATOM     31  H   ALA A   5      13.360   5.799  -0.825  0.00  0.00    +0.149 HD
BRANCH  30  32
ATOM     32  CA  ALA A   5      13.163   7.900  -1.041  0.00  0.00    +0.156 C 
ATOM     33  CB  ALA A   5      12.724   8.653   0.211  0.00  0.00    +0.038 C 
BRANCH  32  34
ATOM     34  C   ALA A   5      14.702   7.889  -1.142  0.00  0.00    +0.234 C 
ATOM     35  N   ASP A   6      15.273   9.110  -1.418  0.00  0.00    -0.304 N 
ATOM     36  H   ASP A   6      14.696   9.949  -1.478  0.00  0.00    +0.149 HD
ATOM     37  O   ALA A   5      15.384   6.874  -0.983  0.00  0.00    -0.274 OA
BRANCH  35  38
ATOM     38  CA  ASP A   6      16.719   9.314  -1.386  0.00  0.00    +0.142 C 
BRANCH  38  39
ATOM     39  C   ASP A   6      16.977  10.813  -1.468  0.00  0.00    +0.245 C 
ATOM     40  O   ASP A   6      16.072  11.645  -1.523  0.00  0.00    -0.299 OA
ENDBRANCH  38  39
BRANCH  38  41
ATOM     41  CB  ASP A   6      17.421   8.609  -2.537  0.00  0.00    +0.087 C 
BRANCH  41  42
ATOM     42  CG  ASP A   6      18.753   8.144  -2.030  0.00  0.00    +0.025 C 
ATOM     43  OD1 ASP A   6      19.745   8.858  -2.028  0.00  0.00    -0.851 OA
BRANCH  42  44
ATOM     44  OD2 ASP A   6      18.727   6.912  -1.486  0.00  0.00    -0.526 OA
ATOM     45  HD2 ASP A   6      17.843   6.485  -1.480  0.00  0.00    +0.290 HD
ENDBRANCH  42  44
ENDBRANCH  41  42
ENDBRANCH  38  41
ENDBRANCH  35  38
ENDBRANCH  32  34
ENDBRANCH  30  32
ENDBRANCH  27  28
BRANCH  27  46
ATOM     46  CB  SER A   4      11.698   3.919  -2.360  0.00  0.00    +0.187 C 
BRANCH  46  47
ATOM     47  OG  SER A   4      11.249   4.299  -3.660  0.00  0.00    -0.393 OA
ATOM     48  H   SER A   4      10.282   4.184  -3.667  0.00  0.00    +0.209 HD
ENDBRANCH  46  47
ENDBRANCH  27  46
ENDBRANCH  24  27
ENDBRANCH   1  23
BRANCH   1  49
ATOM     49  CB  GLN A   3       6.775   4.391   0.327  0.00  0.00    +0.041 C 
BRANCH  49  50
ATOM     50  CG  GLN A   3       7.185   5.859   0.425  0.00  0.00    +0.098 C 
BRANCH  50  51
ATOM     51  CD  GLN A   3       6.341   6.670   1.387  0.00  0.00    +0.211 C 
ATOM     52  NE2 GLN A   3       6.060   6.102   2.591  0.00  0.00    -0.329 N 
ATOM     53 HE21 GLN A   3       5.464   6.636   3.213  0.00  0.00    +0.145 HD
ATOM     54 HE22 GLN A   3       6.183   5.121   2.791  0.00  0.00    +0.145 HD
ATOM     55  OE1 GLN A   3       5.989   7.819   1.146  0.00  0.00    -0.276 OA
ENDBRANCH  50  51
ENDBRANCH  49  50
ENDBRANCH   1  49
TORSDOF 25
