MODEL 1
REMARK VINA RESULT:      -6.0      0.000      0.000
REMARK  Name = MLQSAD-mmff94.pdb
REMARK  29 active torsions:
REMARK  status: ('A' for Active; 'I' for Inactive)
REMARK    1  A    between atoms: _1  and  _2
REMARK    2  A    between atoms: _2  and  _3
REMARK    3  A    between atoms: _2  and  _5
REMARK    4  A    between atoms: _5  and  _6
REMARK    5  A    between atoms: _6  and  _7
REMARK    6  A    between atoms: _7  and  _8
REMARK    7  A    between atoms: _18  and  _19
REMARK    8  A    between atoms: _19  and  _20
REMARK    9  A    between atoms: _19  and  _22
REMARK   10  A    between atoms: _22  and  _23
REMARK   11  A    between atoms: _23  and  _24
REMARK   12  A    between atoms: _23  and  _25
REMARK   13  A    between atoms: _37  and  _38
REMARK   14  A    between atoms: _38  and  _39
REMARK   15  A    between atoms: _38  and  _41
REMARK   16  A    between atoms: _41  and  _42
REMARK   17  A    between atoms: _42  and  _43
REMARK   18  A    between atoms: _54  and  _55
REMARK   19  A    between atoms: _55  and  _56
REMARK   20  A    between atoms: _55  and  _58
REMARK   21  A    between atoms: _58  and  _59
REMARK   22  A    between atoms: _65  and  _66
REMARK   23  A    between atoms: _66  and  _67
REMARK   24  A    between atoms: _66  and  _69
REMARK   25  A    between atoms: _75  and  _76
REMARK   26  A    between atoms: _76  and  _77
REMARK   27  A    between atoms: _76  and  _79
REMARK   28  A    between atoms: _79  and  _80
REMARK   29  A    between atoms: _80  and  _81
REMARK                            x       y       z     vdW  Elec       q    Type
REMARK                         _______ _______ _______ _____ _____    ______ ____
ROOT
ATOM      1  CA  GLN A   3       8.977   0.364  21.313  0.00  0.00    +0.159 C 
ENDROOT
BRANCH   1   3
ATOM      2  C   LEU A   2       9.294  -1.931  22.229  0.00  0.00    +0.234 C 
ATOM      3  N   GLN A   3       8.469  -0.915  21.810  0.00  0.00    -0.302 N 
ATOM      4  H   GLN A   3       7.462  -1.054  21.769  0.00  0.00    +0.150 HD
ATOM      5  O   LEU A   2      10.520  -1.827  22.247  0.00  0.00    -0.274 OA
BRANCH   2   6
ATOM      6  CA  LEU A   2       8.566  -3.204  22.714  0.00  0.00    +0.159 C 
BRANCH   6   8
ATOM      7  C   MET A   1       8.780  -3.974  25.070  0.00  0.00    +0.230 C 
ATOM      8  N   LEU A   2       8.351  -3.049  24.150  0.00  0.00    -0.303 N 
ATOM      9  H   LEU A   2       8.035  -2.134  24.460  0.00  0.00    +0.149 HD
ATOM     10  O   MET A   1       9.325  -5.030  24.757  0.00  0.00    -0.274 OA
BRANCH   7  11
ATOM     11  CA  MET A   1       8.519  -3.593  26.544  0.00  0.00    +0.138 C 
BRANCH  11  12
ATOM     12  N   MET A   1       8.592  -2.123  26.676  0.00  0.00    -0.320 NA
ATOM     13  H1  MET A   1       9.530  -1.823  26.401  0.00  0.00    +0.119 HD
ATOM     14  H2  MET A   1       7.991  -1.726  25.944  0.00  0.00    +0.119 HD
ENDBRANCH  11  12
BRANCH  11  15
ATOM     15  CB  MET A   1       7.146  -4.133  26.962  0.00  0.00    +0.038 C 
BRANCH  15  16
ATOM     16  CG  MET A   1       7.215  -5.568  27.483  0.00  0.00    +0.071 C 
BRANCH  16  17
ATOM     17  SD  MET A   1       5.603  -6.048  28.189  0.00  0.00    -0.164 S 
ATOM     18  CE  MET A   1       4.857  -6.754  26.699  0.00  0.00    +0.084 C 
ENDBRANCH  16  17
ENDBRANCH  15  16
ENDBRANCH  11  15
ENDBRANCH   7  11
ENDBRANCH   6   8
BRANCH   6  19
ATOM     19  CB  LEU A   2       7.244  -3.357  21.943  0.00  0.00    +0.034 C 
BRANCH  19  20
ATOM     20  CG  LEU A   2       6.388  -4.581  22.328  0.00  0.00    -0.015 C 
ATOM     21  CD2 LEU A   2       6.261  -5.582  21.179  0.00  0.00    +0.007 C 
ATOM     22  CD1 LEU A   2       4.992  -4.120  22.757  0.00  0.00    +0.007 C 
ENDBRANCH  19  20
ENDBRANCH   6  19
ENDBRANCH   2   6
ENDBRANCH   1   3
BRANCH   1  23
ATOM     23  C   GLN A   3       9.323   1.201  22.563  0.00  0.00    +0.234 C 
ATOM     24  N   SER A   4      10.256   2.188  22.379  0.00  0.00    -0.301 N 
ATOM     25  H   SER A   4      10.653   2.378  21.460  0.00  0.00    +0.150 HD
ATOM     26  O   GLN A   3       8.775   1.010  23.649  0.00  0.00    -0.274 OA
BRANCH  24  27
ATOM     27  CA  SER A   4      10.578   3.169  23.422  0.00  0.00    +0.184 C 
BRANCH  27  28
ATOM     28  C   SER A   4       9.263   3.858  23.824  0.00  0.00    +0.236 C 
ATOM     29  O   SER A   4       9.030   4.161  24.995  0.00  0.00    -0.274 OA
ATOM     30  N   ALA A   5       8.396   4.153  22.797  0.00  0.00    -0.303 N 
ATOM     31  H   ALA A   5       8.602   3.888  21.838  0.00  0.00    +0.149 HD
BRANCH  30  32
ATOM     32  CA  ALA A   5       7.117   4.812  23.038  0.00  0.00    +0.156 C 
ATOM     33  CB  ALA A   5       6.791   5.808  21.930  0.00  0.00    +0.038 C 
BRANCH  32  34
ATOM     34  C   ALA A   5       6.010   3.741  23.132  0.00  0.00    +0.234 C 
ATOM     35  N   ASP A   6       6.145   2.859  24.179  0.00  0.00    -0.304 N 
ATOM     36  H   ASP A   6       6.895   2.977  24.861  0.00  0.00    +0.149 HD
ATOM     37  O   ALA A   5       5.066   3.672  22.341  0.00  0.00    -0.274 OA
BRANCH  35  38
ATOM     38  CA  ASP A   6       5.105   1.889  24.514  0.00  0.00    +0.142 C 
BRANCH  38  39
ATOM     39  C   ASP A   6       3.981   2.639  25.217  0.00  0.00    +0.245 C 
ATOM     40  O   ASP A   6       2.870   2.803  24.715  0.00  0.00    -0.299 OA
ENDBRANCH  38  39
BRANCH  38  41
ATOM     41  CB  ASP A   6       5.627   0.782  25.417  0.00  0.00    +0.087 C 
BRANCH  41  42
ATOM     42  CG  ASP A   6       5.936  -0.398  24.545  0.00  0.00    +0.025 C 
ATOM     43  OD1 ASP A   6       5.951  -1.545  24.966  0.00  0.00    -0.851 OA
BRANCH  42  44
ATOM     44  OD2 ASP A   6       6.091  -0.085  23.244  0.00  0.00    -0.526 OA
ATOM     45  HD2 ASP A   6       6.343  -0.839  22.668  0.00  0.00    +0.290 HD
ENDBRANCH  42  44
ENDBRANCH  41  42
ENDBRANCH  38  41
ENDBRANCH  35  38
ENDBRANCH  32  34
ENDBRANCH  30  32
ENDBRANCH  27  28
BRANCH  27  46
ATOM     46  CB  SER A   4      11.629   4.181  22.954  0.00  0.00    +0.187 C 
BRANCH  46  47
ATOM     47  OG  SER A   4      11.143   5.520  23.031  0.00  0.00    -0.393 OA
ATOM     48  H   SER A   4      10.406   5.587  22.398  0.00  0.00    +0.209 HD
ENDBRANCH  46  47
ENDBRANCH  27  46
ENDBRANCH  24  27
ENDBRANCH   1  23
BRANCH   1  49
ATOM     49  CB  GLN A   3       7.920   1.055  20.441  0.00  0.00    +0.041 C 
BRANCH  49  50
ATOM     50  CG  GLN A   3       7.609   0.311  19.143  0.00  0.00    +0.098 C 
BRANCH  50  51
ATOM     51  CD  GLN A   3       6.249  -0.356  19.128  0.00  0.00    +0.211 C 
ATOM     52  NE2 GLN A   3       5.586  -0.379  17.939  0.00  0.00    -0.329 N 
ATOM     53 HE21 GLN A   3       4.662  -0.794  17.947  0.00  0.00    +0.145 HD
ATOM     54 HE22 GLN A   3       5.833   0.197  17.148  0.00  0.00    +0.145 HD
ATOM     55  OE1 GLN A   3       5.786  -0.929  20.107  0.00  0.00    -0.276 OA
ENDBRANCH  50  51
ENDBRANCH  49  50
ENDBRANCH   1  49
TORSDOF 25
ENDMDL
MODEL 2
REMARK VINA RESULT:      -6.0      2.525      7.457
REMARK  Name = MLQSAD-mmff94.pdb
REMARK  29 active torsions:
REMARK  status: ('A' for Active; 'I' for Inactive)
REMARK    1  A    between atoms: _1  and  _2
REMARK    2  A    between atoms: _2  and  _3
REMARK    3  A    between atoms: _2  and  _5
REMARK    4  A    between atoms: _5  and  _6
REMARK    5  A    between atoms: _6  and  _7
REMARK    6  A    between atoms: _7  and  _8
REMARK    7  A    between atoms: _18  and  _19
REMARK    8  A    between atoms: _19  and  _20
REMARK    9  A    between atoms: _19  and  _22
REMARK   10  A    between atoms: _22  and  _23
REMARK   11  A    between atoms: _23  and  _24
REMARK   12  A    between atoms: _23  and  _25
REMARK   13  A    between atoms: _37  and  _38
REMARK   14  A    between atoms: _38  and  _39
REMARK   15  A    between atoms: _38  and  _41
REMARK   16  A    between atoms: _41  and  _42
REMARK   17  A    between atoms: _42  and  _43
REMARK   18  A    between atoms: _54  and  _55
REMARK   19  A    between atoms: _55  and  _56
REMARK   20  A    between atoms: _55  and  _58
REMARK   21  A    between atoms: _58  and  _59
REMARK   22  A    between atoms: _65  and  _66
REMARK   23  A    between atoms: _66  and  _67
REMARK   24  A    between atoms: _66  and  _69
REMARK   25  A    between atoms: _75  and  _76
REMARK   26  A    between atoms: _76  and  _77
REMARK   27  A    between atoms: _76  and  _79
REMARK   28  A    between atoms: _79  and  _80
REMARK   29  A    between atoms: _80  and  _81
REMARK                            x       y       z     vdW  Elec       q    Type
REMARK                         _______ _______ _______ _____ _____    ______ ____
ROOT
ATOM      1  CA  GLN A   3       9.595  -0.515  24.226  0.00  0.00    +0.159 C 
ENDROOT
BRANCH   1   3
ATOM      2  C   LEU A   2       8.711  -0.169  21.922  0.00  0.00    +0.234 C 
ATOM      3  N   GLN A   3       8.541  -0.135  23.285  0.00  0.00    -0.302 N 
ATOM      4  H   GLN A   3       7.679   0.228  23.687  0.00  0.00    +0.150 HD
ATOM      5  O   LEU A   2       9.754  -0.551  21.393  0.00  0.00    -0.274 OA
BRANCH   2   6
ATOM      6  CA  LEU A   2       7.482   0.274  21.100  0.00  0.00    +0.159 C 
BRANCH   6   8
ATOM      7  C   MET A   1       6.411   1.851  22.699  0.00  0.00    +0.230 C 
ATOM      8  N   LEU A   2       7.129   1.617  21.552  0.00  0.00    -0.303 N 
ATOM      9  H   LEU A   2       7.600   2.386  21.083  0.00  0.00    +0.149 HD
ATOM     10  O   MET A   1       5.957   0.950  23.402  0.00  0.00    -0.274 OA
BRANCH   7  11
ATOM     11  CA  MET A   1       6.202   3.342  23.042  0.00  0.00    +0.138 C 
BRANCH  11  12
ATOM     12  N   MET A   1       6.748   4.164  21.943  0.00  0.00    -0.320 NA
ATOM     13  H1  MET A   1       7.276   3.552  21.317  0.00  0.00    +0.119 HD
ATOM     14  H2  MET A   1       5.952   4.462  21.368  0.00  0.00    +0.119 HD
ENDBRANCH  11  12
BRANCH  11  15
ATOM     15  CB  MET A   1       4.705   3.599  23.255  0.00  0.00    +0.038 C 
BRANCH  15  16
ATOM     16  CG  MET A   1       4.424   4.414  24.516  0.00  0.00    +0.071 C 
BRANCH  16  17
ATOM     17  SD  MET A   1       5.362   3.724  25.921  0.00  0.00    -0.164 S 
ATOM     18  CE  MET A   1       4.346   2.259  26.228  0.00  0.00    +0.084 C 
ENDBRANCH  16  17
ENDBRANCH  15  16
ENDBRANCH  11  15
ENDBRANCH   7  11
ENDBRANCH   6   8
BRANCH   6  19
ATOM     19  CB  LEU A   2       7.834   0.242  19.603  0.00  0.00    +0.034 C 
BRANCH  19  20
ATOM     20  CG  LEU A   2       6.685  -0.164  18.658  0.00  0.00    -0.015 C 
ATOM     21  CD2 LEU A   2       5.937   1.050  18.103  0.00  0.00    +0.007 C 
ATOM     22  CD1 LEU A   2       5.700  -1.070  19.401  0.00  0.00    +0.007 C 
ENDBRANCH  19  20
ENDBRANCH   6  19
ENDBRANCH   2   6
ENDBRANCH   1   3
BRANCH   1  23
ATOM     23  C   GLN A   3       8.878  -0.947  25.522  0.00  0.00    +0.234 C 
ATOM     24  N   SER A   4       7.718  -1.657  25.352  0.00  0.00    -0.301 N 
ATOM     25  H   SER A   4       7.387  -1.918  24.424  0.00  0.00    +0.150 HD
ATOM     26  O   GLN A   3       9.333  -0.692  26.637  0.00  0.00    -0.274 OA
BRANCH  24  27
ATOM     27  CA  SER A   4       7.002  -2.274  26.476  0.00  0.00    +0.184 C 
BRANCH  27  28
ATOM     28  C   SER A   4       6.938  -3.786  26.202  0.00  0.00    +0.236 C 
ATOM     29  O   SER A   4       7.955  -4.434  25.948  0.00  0.00    -0.274 OA
ATOM     30  N   ALA A   5       5.696  -4.368  26.306  0.00  0.00    -0.303 N 
ATOM     31  H   ALA A   5       4.869  -3.816  26.510  0.00  0.00    +0.149 HD
BRANCH  30  32
ATOM     32  CA  ALA A   5       5.496  -5.796  26.079  0.00  0.00    +0.156 C 
ATOM     33  CB  ALA A   5       4.386  -6.346  26.968  0.00  0.00    +0.038 C 
BRANCH  32  34
ATOM     34  C   ALA A   5       5.149  -6.023  24.593  0.00  0.00    +0.234 C 
ATOM     35  N   ASP A   6       5.732  -5.135  23.719  0.00  0.00    -0.304 N 
ATOM     36  H   ASP A   6       6.391  -4.434  24.058  0.00  0.00    +0.149 HD
ATOM     37  O   ALA A   5       4.412  -6.932  24.202  0.00  0.00    -0.274 OA
BRANCH  35  38
ATOM     38  CA  ASP A   6       5.644  -5.303  22.271  0.00  0.00    +0.142 C 
BRANCH  38  39
ATOM     39  C   ASP A   6       6.682  -6.340  21.862  0.00  0.00    +0.245 C 
ATOM     40  O   ASP A   6       7.813  -6.380  22.345  0.00  0.00    -0.299 OA
ENDBRANCH  38  39
BRANCH  38  41
ATOM     41  CB  ASP A   6       5.900  -4.000  21.528  0.00  0.00    +0.087 C 
BRANCH  41  42
ATOM     42  CG  ASP A   6       6.600  -3.075  22.478  0.00  0.00    +0.025 C 
ATOM     43  OD1 ASP A   6       7.785  -3.188  22.757  0.00  0.00    -0.851 OA
BRANCH  42  44
ATOM     44  OD2 ASP A   6       5.833  -2.056  22.908  0.00  0.00    -0.526 OA
ATOM     45  HD2 ASP A   6       5.326  -2.242  23.729  0.00  0.00    +0.290 HD
ENDBRANCH  42  44
ENDBRANCH  41  42
ENDBRANCH  38  41
ENDBRANCH  35  38
ENDBRANCH  32  34
ENDBRANCH  30  32
ENDBRANCH  27  28
BRANCH  27  46
ATOM     46  CB  SER A   4       5.606  -1.673  26.667  0.00  0.00    +0.187 C 
BRANCH  46  47
ATOM     47  OG  SER A   4       5.020  -1.293  25.423  0.00  0.00    -0.393 OA
ATOM     48  H   SER A   4       4.940  -2.106  24.892  0.00  0.00    +0.209 HD
ENDBRANCH  46  47
ENDBRANCH  27  46
ENDBRANCH  24  27
ENDBRANCH   1  23
BRANCH   1  49
ATOM     49  CB  GLN A   3      10.545   0.667  24.469  0.00  0.00    +0.041 C 
BRANCH  49  50
ATOM     50  CG  GLN A   3       9.899   2.033  24.245  0.00  0.00    +0.098 C 
BRANCH  50  51
ATOM     51  CD  GLN A   3      10.598   2.880  23.201  0.00  0.00    +0.211 C 
ATOM     52  NE2 GLN A   3      10.439   2.512  21.901  0.00  0.00    -0.329 N 
ATOM     53 HE21 GLN A   3      10.941   3.062  21.213  0.00  0.00    +0.145 HD
ATOM     54 HE22 GLN A   3      10.084   1.614  21.611  0.00  0.00    +0.145 HD
ATOM     55  OE1 GLN A   3      11.213   3.901  23.487  0.00  0.00    -0.276 OA
ENDBRANCH  50  51
ENDBRANCH  49  50
ENDBRANCH   1  49
TORSDOF 25
ENDMDL
MODEL 3
REMARK VINA RESULT:      -5.9      2.198      6.548
REMARK  Name = MLQSAD-mmff94.pdb
REMARK  29 active torsions:
REMARK  status: ('A' for Active; 'I' for Inactive)
REMARK    1  A    between atoms: _1  and  _2
REMARK    2  A    between atoms: _2  and  _3
REMARK    3  A    between atoms: _2  and  _5
REMARK    4  A    between atoms: _5  and  _6
REMARK    5  A    between atoms: _6  and  _7
REMARK    6  A    between atoms: _7  and  _8
REMARK    7  A    between atoms: _18  and  _19
REMARK    8  A    between atoms: _19  and  _20
REMARK    9  A    between atoms: _19  and  _22
REMARK   10  A    between atoms: _22  and  _23
REMARK   11  A    between atoms: _23  and  _24
REMARK   12  A    between atoms: _23  and  _25
REMARK   13  A    between atoms: _37  and  _38
REMARK   14  A    between atoms: _38  and  _39
REMARK   15  A    between atoms: _38  and  _41
REMARK   16  A    between atoms: _41  and  _42
REMARK   17  A    between atoms: _42  and  _43
REMARK   18  A    between atoms: _54  and  _55
REMARK   19  A    between atoms: _55  and  _56
REMARK   20  A    between atoms: _55  and  _58
REMARK   21  A    between atoms: _58  and  _59
REMARK   22  A    between atoms: _65  and  _66
REMARK   23  A    between atoms: _66  and  _67
REMARK   24  A    between atoms: _66  and  _69
REMARK   25  A    between atoms: _75  and  _76
REMARK   26  A    between atoms: _76  and  _77
REMARK   27  A    between atoms: _76  and  _79
REMARK   28  A    between atoms: _79  and  _80
REMARK   29  A    between atoms: _80  and  _81
REMARK                            x       y       z     vdW  Elec       q    Type
REMARK                         _______ _______ _______ _____ _____    ______ ____
ROOT
ATOM      1  CA  GLN A   3       9.330   0.001  24.136  0.00  0.00    +0.159 C 
ENDROOT
BRANCH   1   3
ATOM      2  C   LEU A   2       7.107  -0.181  25.245  0.00  0.00    +0.234 C 
ATOM      3  N   GLN A   3       8.465   0.015  25.316  0.00  0.00    -0.302 N 
ATOM      4  H   GLN A   3       8.906   0.247  26.203  0.00  0.00    +0.150 HD
ATOM      5  O   LEU A   2       6.524  -0.414  24.187  0.00  0.00    -0.274 OA
BRANCH   2   6
ATOM      6  CA  LEU A   2       6.368  -0.126  26.600  0.00  0.00    +0.159 C 
BRANCH   6   8
ATOM      7  C   MET A   1       4.533  -1.796  26.778  0.00  0.00    +0.230 C 
ATOM      8  N   LEU A   2       5.864  -1.470  26.865  0.00  0.00    -0.303 N 
ATOM      9  H   LEU A   2       6.563  -2.205  26.933  0.00  0.00    +0.149 HD
ATOM     10  O   MET A   1       3.655  -0.972  26.530  0.00  0.00    -0.274 OA
BRANCH   7  11
ATOM     11  CA  MET A   1       4.212  -3.286  27.027  0.00  0.00    +0.138 C 
BRANCH  11  12
ATOM     12  N   MET A   1       2.999  -3.645  26.262  0.00  0.00    -0.320 NA
ATOM     13  H1  MET A   1       2.278  -2.948  26.460  0.00  0.00    +0.119 HD
ATOM     14  H2  MET A   1       3.214  -3.491  25.271  0.00  0.00    +0.119 HD
ENDBRANCH  11  12
BRANCH  11  15
ATOM     15  CB  MET A   1       5.419  -4.133  26.607  0.00  0.00    +0.038 C 
BRANCH  15  16
ATOM     16  CG  MET A   1       5.947  -5.006  27.745  0.00  0.00    +0.071 C 
BRANCH  16  17
ATOM     17  SD  MET A   1       5.026  -6.580  27.794  0.00  0.00    -0.164 S 
ATOM     18  CE  MET A   1       4.782  -6.804  26.016  0.00  0.00    +0.084 C 
ENDBRANCH  16  17
ENDBRANCH  15  16
ENDBRANCH  11  15
ENDBRANCH   7  11
ENDBRANCH   6   8
BRANCH   6  19
ATOM     19  CB  LEU A   2       7.342   0.353  27.690  0.00  0.00    +0.034 C 
BRANCH  19  20
ATOM     20  CG  LEU A   2       6.801   1.445  28.633  0.00  0.00    -0.015 C 
ATOM     21  CD2 LEU A   2       6.849   2.835  27.996  0.00  0.00    +0.007 C 
ATOM     22  CD1 LEU A   2       7.611   1.455  29.933  0.00  0.00    +0.007 C 
ENDBRANCH  19  20
ENDBRANCH   6  19
ENDBRANCH   2   6
ENDBRANCH   1   3
BRANCH   1  23
ATOM     23  C   GLN A   3       9.727  -1.474  23.914  0.00  0.00    +0.234 C 
ATOM     24  N   SER A   4       9.118  -2.385  24.736  0.00  0.00    -0.301 N 
ATOM     25  H   SER A   4       8.413  -2.099  25.414  0.00  0.00    +0.150 HD
ATOM     26  O   GLN A   3      10.522  -1.812  23.035  0.00  0.00    -0.274 OA
BRANCH  24  27
ATOM     27  CA  SER A   4       9.266  -3.834  24.551  0.00  0.00    +0.184 C 
BRANCH  27  28
ATOM     28  C   SER A   4       8.134  -4.294  23.616  0.00  0.00    +0.236 C 
ATOM     29  O   SER A   4       8.061  -5.460  23.224  0.00  0.00    -0.274 OA
ATOM     30  N   ALA A   5       7.195  -3.342  23.289  0.00  0.00    -0.303 N 
ATOM     31  H   ALA A   5       7.277  -2.384  23.615  0.00  0.00    +0.149 HD
BRANCH  30  32
ATOM     32  CA  ALA A   5       6.066  -3.647  22.416  0.00  0.00    +0.156 C 
ATOM     33  CB  ALA A   5       4.740  -3.471  23.148  0.00  0.00    +0.038 C 
BRANCH  32  34
ATOM     34  C   ALA A   5       6.120  -2.721  21.183  0.00  0.00    +0.234 C 
ATOM     35  N   ASP A   6       6.830  -1.557  21.364  0.00  0.00    -0.304 N 
ATOM     36  H   ASP A   6       7.326  -1.384  22.239  0.00  0.00    +0.149 HD
ATOM     37  O   ALA A   5       5.581  -2.993  20.108  0.00  0.00    -0.274 OA
BRANCH  35  38
ATOM     38  CA  ASP A   6       7.121  -0.647  20.259  0.00  0.00    +0.142 C 
BRANCH  38  39
ATOM     39  C   ASP A   6       8.252   0.273  20.702  0.00  0.00    +0.245 C 
ATOM     40  O   ASP A   6       8.065   1.430  21.075  0.00  0.00    -0.299 OA
ENDBRANCH  38  39
BRANCH  38  41
ATOM     41  CB  ASP A   6       5.908   0.184  19.869  0.00  0.00    +0.087 C 
BRANCH  41  42
ATOM     42  CG  ASP A   6       5.854   0.219  18.371  0.00  0.00    +0.025 C 
ATOM     43  OD1 ASP A   6       5.866   1.263  17.734  0.00  0.00    -0.851 OA
BRANCH  42  44
ATOM     44  OD2 ASP A   6       5.896  -0.998  17.797  0.00  0.00    -0.526 OA
ATOM     45  HD2 ASP A   6       5.734  -1.001  16.829  0.00  0.00    +0.290 HD
ENDBRANCH  42  44
ENDBRANCH  41  42
ENDBRANCH  38  41
ENDBRANCH  35  38
ENDBRANCH  32  34
ENDBRANCH  30  32
ENDBRANCH  27  28
BRANCH  27  46
ATOM     46  CB  SER A   4       9.243  -4.589  25.883  0.00  0.00    +0.187 C 
BRANCH  46  47
ATOM     47  OG  SER A   4       9.719  -5.926  25.740  0.00  0.00    -0.393 OA
ATOM     48  H   SER A   4       9.014  -6.429  25.295  0.00  0.00    +0.209 HD
ENDBRANCH  46  47
ENDBRANCH  27  46
ENDBRANCH  24  27
ENDBRANCH   1  23
BRANCH   1  49
ATOM     49  CB  GLN A   3      10.559   0.891  24.366  0.00  0.00    +0.041 C 
BRANCH  49  50
ATOM     50  CG  GLN A   3      10.526   2.203  23.583  0.00  0.00    +0.098 C 
BRANCH  50  51
ATOM     51  CD  GLN A   3       9.306   3.056  23.866  0.00  0.00    +0.211 C 
ATOM     52  NE2 GLN A   3       8.731   3.681  22.803  0.00  0.00    -0.329 N 
ATOM     53 HE21 GLN A   3       7.938   4.279  23.007  0.00  0.00    +0.145 HD
ATOM     54 HE22 GLN A   3       9.179   3.791  21.907  0.00  0.00    +0.145 HD
ATOM     55  OE1 GLN A   3       8.795   3.126  24.978  0.00  0.00    -0.276 OA
ENDBRANCH  50  51
ENDBRANCH  49  50
ENDBRANCH   1  49
TORSDOF 25
ENDMDL
MODEL 4
REMARK VINA RESULT:      -5.9      2.984      7.633
REMARK  Name = MLQSAD-mmff94.pdb
REMARK  29 active torsions:
REMARK  status: ('A' for Active; 'I' for Inactive)
REMARK    1  A    between atoms: _1  and  _2
REMARK    2  A    between atoms: _2  and  _3
REMARK    3  A    between atoms: _2  and  _5
REMARK    4  A    between atoms: _5  and  _6
REMARK    5  A    between atoms: _6  and  _7
REMARK    6  A    between atoms: _7  and  _8
REMARK    7  A    between atoms: _18  and  _19
REMARK    8  A    between atoms: _19  and  _20
REMARK    9  A    between atoms: _19  and  _22
REMARK   10  A    between atoms: _22  and  _23
REMARK   11  A    between atoms: _23  and  _24
REMARK   12  A    between atoms: _23  and  _25
REMARK   13  A    between atoms: _37  and  _38
REMARK   14  A    between atoms: _38  and  _39
REMARK   15  A    between atoms: _38  and  _41
REMARK   16  A    between atoms: _41  and  _42
REMARK   17  A    between atoms: _42  and  _43
REMARK   18  A    between atoms: _54  and  _55
REMARK   19  A    between atoms: _55  and  _56
REMARK   20  A    between atoms: _55  and  _58
REMARK   21  A    between atoms: _58  and  _59
REMARK   22  A    between atoms: _65  and  _66
REMARK   23  A    between atoms: _66  and  _67
REMARK   24  A    between atoms: _66  and  _69
REMARK   25  A    between atoms: _75  and  _76
REMARK   26  A    between atoms: _76  and  _77
REMARK   27  A    between atoms: _76  and  _79
REMARK   28  A    between atoms: _79  and  _80
REMARK   29  A    between atoms: _80  and  _81
REMARK                            x       y       z     vdW  Elec       q    Type
REMARK                         _______ _______ _______ _____ _____    ______ ____
ROOT
ATOM      1  CA  GLN A   3       8.664  -0.389  26.144  0.00  0.00    +0.159 C 
ENDROOT
BRANCH   1   3
ATOM      2  C   LEU A   2      10.108   0.831  24.522  0.00  0.00    +0.234 C 
ATOM      3  N   GLN A   3       8.866   0.422  24.944  0.00  0.00    -0.302 N 
ATOM      4  H   GLN A   3       8.028   0.736  24.458  0.00  0.00    +0.150 HD
ATOM      5  O   LEU A   2      11.144   0.518  25.107  0.00  0.00    -0.274 OA
BRANCH   2   6
ATOM      6  CA  LEU A   2      10.112   1.683  23.234  0.00  0.00    +0.159 C 
BRANCH   6   8
ATOM      7  C   MET A   1       9.052  -0.091  21.849  0.00  0.00    +0.230 C 
ATOM      8  N   LEU A   2       9.040   1.173  22.384  0.00  0.00    -0.303 N 
ATOM      9  H   LEU A   2       8.188   1.727  22.357  0.00  0.00    +0.149 HD
ATOM     10  O   MET A   1       9.990  -0.872  21.993  0.00  0.00    -0.274 OA
BRANCH   7  11
ATOM     11  CA  MET A   1       7.793  -0.465  21.037  0.00  0.00    +0.138 C 
BRANCH  11  12
ATOM     12  N   MET A   1       6.688  -0.749  21.975  0.00  0.00    -0.320 NA
ATOM     13  H1  MET A   1       5.822  -0.826  21.436  0.00  0.00    +0.119 HD
ATOM     14  H2  MET A   1       6.833  -1.700  22.331  0.00  0.00    +0.119 HD
ENDBRANCH  11  12
BRANCH  11  15
ATOM     15  CB  MET A   1       7.451   0.691  20.089  0.00  0.00    +0.038 C 
BRANCH  15  16
ATOM     16  CG  MET A   1       7.338   0.241  18.633  0.00  0.00    +0.071 C 
BRANCH  16  17
ATOM     17  SD  MET A   1       5.930   1.080  17.833  0.00  0.00    -0.164 S 
ATOM     18  CE  MET A   1       4.988   1.500  19.320  0.00  0.00    +0.084 C 
ENDBRANCH  16  17
ENDBRANCH  15  16
ENDBRANCH  11  15
ENDBRANCH   7  11
ENDBRANCH   6   8
BRANCH   6  19
ATOM     19  CB  LEU A   2       9.905   3.162  23.603  0.00  0.00    +0.034 C 
BRANCH  19  20
ATOM     20  CG  LEU A   2       8.453   3.571  23.921  0.00  0.00    -0.015 C 
ATOM     21  CD2 LEU A   2       7.861   4.483  22.845  0.00  0.00    +0.007 C 
ATOM     22  CD1 LEU A   2       8.401   4.284  25.275  0.00  0.00    +0.007 C 
ENDBRANCH  19  20
ENDBRANCH   6  19
ENDBRANCH   2   6
ENDBRANCH   1   3
BRANCH   1  23
ATOM     23  C   GLN A   3       8.424  -1.832  25.651  0.00  0.00    +0.234 C 
ATOM     24  N   SER A   4       9.378  -2.340  24.810  0.00  0.00    -0.301 N 
ATOM     25  H   SER A   4      10.213  -1.807  24.571  0.00  0.00    +0.150 HD
ATOM     26  O   GLN A   3       7.449  -2.492  26.013  0.00  0.00    -0.274 OA
BRANCH  24  27
ATOM     27  CA  SER A   4       9.380  -3.744  24.380  0.00  0.00    +0.184 C 
BRANCH  27  28
ATOM     28  C   SER A   4       8.113  -3.965  23.536  0.00  0.00    +0.236 C 
ATOM     29  O   SER A   4       7.969  -3.418  22.441  0.00  0.00    -0.274 OA
ATOM     30  N   ALA A   5       7.186  -4.839  24.054  0.00  0.00    -0.303 N 
ATOM     31  H   ALA A   5       7.319  -5.275  24.962  0.00  0.00    +0.149 HD
BRANCH  30  32
ATOM     32  CA  ALA A   5       5.943  -5.144  23.353  0.00  0.00    +0.156 C 
ATOM     33  CB  ALA A   5       6.098  -6.374  22.464  0.00  0.00    +0.038 C 
BRANCH  32  34
ATOM     34  C   ALA A   5       4.825  -5.376  24.390  0.00  0.00    +0.234 C 
ATOM     35  N   ASP A   6       4.965  -4.666  25.560  0.00  0.00    -0.304 N 
ATOM     36  H   ASP A   6       5.726  -3.996  25.671  0.00  0.00    +0.149 HD
ATOM     37  O   ALA A   5       3.869  -6.130  24.198  0.00  0.00    -0.274 OA
BRANCH  35  38
ATOM     38  CA  ASP A   6       3.918  -4.639  26.579  0.00  0.00    +0.142 C 
BRANCH  38  39
ATOM     39  C   ASP A   6       3.194  -3.304  26.463  0.00  0.00    +0.245 C 
ATOM     40  O   ASP A   6       3.534  -2.425  25.672  0.00  0.00    -0.299 OA
ENDBRANCH  38  39
BRANCH  38  41
ATOM     41  CB  ASP A   6       4.484  -4.795  27.983  0.00  0.00    +0.087 C 
BRANCH  41  42
ATOM     42  CG  ASP A   6       5.771  -5.554  27.864  0.00  0.00    +0.025 C 
ATOM     43  OD1 ASP A   6       5.812  -6.763  27.688  0.00  0.00    -0.851 OA
BRANCH  42  44
ATOM     44  OD2 ASP A   6       6.866  -4.769  27.864  0.00  0.00    -0.526 OA
ATOM     45  HD2 ASP A   6       7.717  -5.252  27.949  0.00  0.00    +0.290 HD
ENDBRANCH  42  44
ENDBRANCH  41  42
ENDBRANCH  38  41
ENDBRANCH  35  38
ENDBRANCH  32  34
ENDBRANCH  30  32
ENDBRANCH  27  28
BRANCH  27  46
ATOM     46  CB  SER A   4       9.446  -4.709  25.568  0.00  0.00    +0.187 C 
BRANCH  46  47
ATOM     47  OG  SER A   4       9.913  -5.998  25.175  0.00  0.00    -0.393 OA
ATOM     48  H   SER A   4       9.172  -6.617  25.308  0.00  0.00    +0.209 HD
ENDBRANCH  46  47
ENDBRANCH  27  46
ENDBRANCH  24  27
ENDBRANCH   1  23
BRANCH   1  49
ATOM     49  CB  GLN A   3       7.470   0.141  26.952  0.00  0.00    +0.041 C 
BRANCH  49  50
ATOM     50  CG  GLN A   3       6.633   1.178  26.206  0.00  0.00    +0.098 C 
BRANCH  50  51
ATOM     51  CD  GLN A   3       5.355   0.624  25.611  0.00  0.00    +0.211 C 
ATOM     52  NE2 GLN A   3       5.483  -0.361  24.681  0.00  0.00    -0.329 N 
ATOM     53 HE21 GLN A   3       4.625  -0.699  24.261  0.00  0.00    +0.145 HD
ATOM     54 HE22 GLN A   3       6.350  -0.581  24.213  0.00  0.00    +0.145 HD
ATOM     55  OE1 GLN A   3       4.244   0.971  25.996  0.00  0.00    -0.276 OA
ENDBRANCH  50  51
ENDBRANCH  49  50
ENDBRANCH   1  49
TORSDOF 25
ENDMDL
MODEL 5
REMARK VINA RESULT:      -5.9      3.115      6.903
REMARK  Name = MLQSAD-mmff94.pdb
REMARK  29 active torsions:
REMARK  status: ('A' for Active; 'I' for Inactive)
REMARK    1  A    between atoms: _1  and  _2
REMARK    2  A    between atoms: _2  and  _3
REMARK    3  A    between atoms: _2  and  _5
REMARK    4  A    between atoms: _5  and  _6
REMARK    5  A    between atoms: _6  and  _7
REMARK    6  A    between atoms: _7  and  _8
REMARK    7  A    between atoms: _18  and  _19
REMARK    8  A    between atoms: _19  and  _20
REMARK    9  A    between atoms: _19  and  _22
REMARK   10  A    between atoms: _22  and  _23
REMARK   11  A    between atoms: _23  and  _24
REMARK   12  A    between atoms: _23  and  _25
REMARK   13  A    between atoms: _37  and  _38
REMARK   14  A    between atoms: _38  and  _39
REMARK   15  A    between atoms: _38  and  _41
REMARK   16  A    between atoms: _41  and  _42
REMARK   17  A    between atoms: _42  and  _43
REMARK   18  A    between atoms: _54  and  _55
REMARK   19  A    between atoms: _55  and  _56
REMARK   20  A    between atoms: _55  and  _58
REMARK   21  A    between atoms: _58  and  _59
REMARK   22  A    between atoms: _65  and  _66
REMARK   23  A    between atoms: _66  and  _67
REMARK   24  A    between atoms: _66  and  _69
REMARK   25  A    between atoms: _75  and  _76
REMARK   26  A    between atoms: _76  and  _77
REMARK   27  A    between atoms: _76  and  _79
REMARK   28  A    between atoms: _79  and  _80
REMARK   29  A    between atoms: _80  and  _81
REMARK                            x       y       z     vdW  Elec       q    Type
REMARK                         _______ _______ _______ _____ _____    ______ ____
ROOT
ATOM      1  CA  GLN A   3       3.908  -3.443  27.002  0.00  0.00    +0.159 C 
ENDROOT
BRANCH   1   3
ATOM      2  C   LEU A   2       4.854  -3.992  24.764  0.00  0.00    +0.234 C 
ATOM      3  N   GLN A   3       5.012  -3.816  26.117  0.00  0.00    -0.302 N 
ATOM      4  H   GLN A   3       5.908  -4.011  26.560  0.00  0.00    +0.150 HD
ATOM      5  O   LEU A   2       3.778  -3.818  24.193  0.00  0.00    -0.274 OA
BRANCH   2   6
ATOM      6  CA  LEU A   2       6.138  -4.389  24.003  0.00  0.00    +0.159 C 
BRANCH   6   8
ATOM      7  C   MET A   1       6.268  -2.770  22.118  0.00  0.00    +0.230 C 
ATOM      8  N   LEU A   2       6.651  -3.175  23.373  0.00  0.00    -0.303 N 
ATOM      9  H   LEU A   2       7.162  -2.538  23.978  0.00  0.00    +0.149 HD
ATOM     10  O   MET A   1       5.511  -3.424  21.403  0.00  0.00    -0.274 OA
BRANCH   7  11
ATOM     11  CA  MET A   1       6.868  -1.423  21.659  0.00  0.00    +0.138 C 
BRANCH  11  12
ATOM     12  N   MET A   1       8.341  -1.531  21.669  0.00  0.00    -0.320 NA
ATOM     13  H1  MET A   1       8.672  -1.320  22.613  0.00  0.00    +0.119 HD
ATOM     14  H2  MET A   1       8.570  -2.525  21.553  0.00  0.00    +0.119 HD
ENDBRANCH  11  12
BRANCH  11  15
ATOM     15  CB  MET A   1       6.332  -1.089  20.262  0.00  0.00    +0.038 C 
BRANCH  15  16
ATOM     16  CG  MET A   1       7.154  -0.008  19.562  0.00  0.00    +0.071 C 
BRANCH  16  17
ATOM     17  SD  MET A   1       6.187   0.717  18.195  0.00  0.00    -0.164 S 
ATOM     18  CE  MET A   1       4.890   1.511  19.176  0.00  0.00    +0.084 C 
ENDBRANCH  16  17
ENDBRANCH  15  16
ENDBRANCH  11  15
ENDBRANCH   7  11
ENDBRANCH   6   8
BRANCH   6  19
ATOM     19  CB  LEU A   2       7.146  -4.998  24.992  0.00  0.00    +0.034 C 
BRANCH  19  20
ATOM     20  CG  LEU A   2       8.461  -4.214  25.169  0.00  0.00    -0.015 C 
ATOM     21  CD2 LEU A   2       9.676  -5.137  25.273  0.00  0.00    +0.007 C 
ATOM     22  CD1 LEU A   2       8.378  -3.342  26.425  0.00  0.00    +0.007 C 
ENDBRANCH  19  20
ENDBRANCH   6  19
ENDBRANCH   2   6
ENDBRANCH   1   3
BRANCH   1  23
ATOM     23  C   GLN A   3       3.850  -1.901  26.986  0.00  0.00    +0.234 C 
ATOM     24  N   SER A   4       5.040  -1.257  27.197  0.00  0.00    -0.301 N 
ATOM     25  H   SER A   4       5.911  -1.775  27.308  0.00  0.00    +0.150 HD
ATOM     26  O   GLN A   3       2.802  -1.289  26.772  0.00  0.00    -0.274 OA
BRANCH  24  27
ATOM     27  CA  SER A   4       5.183   0.197  27.057  0.00  0.00    +0.184 C 
BRANCH  27  28
ATOM     28  C   SER A   4       5.727   0.470  25.644  0.00  0.00    +0.236 C 
ATOM     29  O   SER A   4       6.324  -0.401  25.009  0.00  0.00    -0.274 OA
ATOM     30  N   ALA A   5       5.466   1.717  25.125  0.00  0.00    -0.303 N 
ATOM     31  H   ALA A   5       4.979   2.424  25.668  0.00  0.00    +0.149 HD
BRANCH  30  32
ATOM     32  CA  ALA A   5       5.919   2.104  23.793  0.00  0.00    +0.156 C 
ATOM     33  CB  ALA A   5       5.003   3.161  23.184  0.00  0.00    +0.038 C 
BRANCH  32  34
ATOM     34  C   ALA A   5       7.361   2.643  23.890  0.00  0.00    +0.234 C 
ATOM     35  N   ASP A   6       8.344   1.686  23.793  0.00  0.00    -0.304 N 
ATOM     36  H   ASP A   6       8.103   0.713  23.604  0.00  0.00    +0.149 HD
ATOM     37  O   ALA A   5       7.629   3.838  24.036  0.00  0.00    -0.274 OA
BRANCH  35  38
ATOM     38  CA  ASP A   6       9.759   2.036  23.700  0.00  0.00    +0.142 C 
BRANCH  38  39
ATOM     39  C   ASP A   6      10.161   1.953  22.233  0.00  0.00    +0.245 C 
ATOM     40  O   ASP A   6       9.963   0.955  21.541  0.00  0.00    -0.299 OA
ENDBRANCH  38  39
BRANCH  38  41
ATOM     41  CB  ASP A   6      10.634   1.104  24.524  0.00  0.00    +0.087 C 
BRANCH  41  42
ATOM     42  CG  ASP A   6       9.803  -0.092  24.878  0.00  0.00    +0.025 C 
ATOM     43  OD1 ASP A   6       9.734  -1.084  24.167  0.00  0.00    -0.851 OA
BRANCH  42  44
ATOM     44  OD2 ASP A   6       9.227  -0.013  26.093  0.00  0.00    -0.526 OA
ATOM     45  HD2 ASP A   6       9.856  -0.021  26.847  0.00  0.00    +0.290 HD
ENDBRANCH  42  44
ENDBRANCH  41  42
ENDBRANCH  38  41
ENDBRANCH  35  38
ENDBRANCH  32  34
ENDBRANCH  30  32
ENDBRANCH  27  28
BRANCH  27  46
ATOM     46  CB  SER A   4       6.091   0.792  28.139  0.00  0.00    +0.187 C 
BRANCH  46  47
ATOM     47  OG  SER A   4       7.339   1.226  27.600  0.00  0.00    -0.393 OA
ATOM     48  H   SER A   4       7.176   2.086  27.173  0.00  0.00    +0.209 HD
ENDBRANCH  46  47
ENDBRANCH  27  46
ENDBRANCH  24  27
ENDBRANCH   1  23
BRANCH   1  49
ATOM     49  CB  GLN A   3       4.152  -3.988  28.417  0.00  0.00    +0.041 C 
BRANCH  49  50
ATOM     50  CG  GLN A   3       4.102  -5.512  28.508  0.00  0.00    +0.098 C 
BRANCH  50  51
ATOM     51  CD  GLN A   3       5.466  -6.167  28.587  0.00  0.00    +0.211 C 
ATOM     52  NE2 GLN A   3       5.493  -7.525  28.677  0.00  0.00    -0.329 N 
ATOM     53 HE21 GLN A   3       6.408  -7.952  28.767  0.00  0.00    +0.145 HD
ATOM     54 HE22 GLN A   3       4.690  -8.088  28.913  0.00  0.00    +0.145 HD
ATOM     55  OE1 GLN A   3       6.509  -5.531  28.490  0.00  0.00    -0.276 OA
ENDBRANCH  50  51
ENDBRANCH  49  50
ENDBRANCH   1  49
TORSDOF 25
ENDMDL
MODEL 6
REMARK VINA RESULT:      -5.9      2.755      7.483
REMARK  Name = MLQSAD-mmff94.pdb
REMARK  29 active torsions:
REMARK  status: ('A' for Active; 'I' for Inactive)
REMARK    1  A    between atoms: _1  and  _2
REMARK    2  A    between atoms: _2  and  _3
REMARK    3  A    between atoms: _2  and  _5
REMARK    4  A    between atoms: _5  and  _6
REMARK    5  A    between atoms: _6  and  _7
REMARK    6  A    between atoms: _7  and  _8
REMARK    7  A    between atoms: _18  and  _19
REMARK    8  A    between atoms: _19  and  _20
REMARK    9  A    between atoms: _19  and  _22
REMARK   10  A    between atoms: _22  and  _23
REMARK   11  A    between atoms: _23  and  _24
REMARK   12  A    between atoms: _23  and  _25
REMARK   13  A    between atoms: _37  and  _38
REMARK   14  A    between atoms: _38  and  _39
REMARK   15  A    between atoms: _38  and  _41
REMARK   16  A    between atoms: _41  and  _42
REMARK   17  A    between atoms: _42  and  _43
REMARK   18  A    between atoms: _54  and  _55
REMARK   19  A    between atoms: _55  and  _56
REMARK   20  A    between atoms: _55  and  _58
REMARK   21  A    between atoms: _58  and  _59
REMARK   22  A    between atoms: _65  and  _66
REMARK   23  A    between atoms: _66  and  _67
REMARK   24  A    between atoms: _66  and  _69
REMARK   25  A    between atoms: _75  and  _76
REMARK   26  A    between atoms: _76  and  _77
REMARK   27  A    between atoms: _76  and  _79
REMARK   28  A    between atoms: _79  and  _80
REMARK   29  A    between atoms: _80  and  _81
REMARK                            x       y       z     vdW  Elec       q    Type
REMARK                         _______ _______ _______ _____ _____    ______ ____
ROOT
ATOM      1  CA  GLN A   3       9.431  -0.808  24.459  0.00  0.00    +0.159 C 
ENDROOT
BRANCH   1   3
ATOM      2  C   LEU A   2       8.594  -0.703  22.115  0.00  0.00    +0.234 C 
ATOM      3  N   GLN A   3       8.382  -0.573  23.466  0.00  0.00    -0.302 N 
ATOM      4  H   GLN A   3       7.488  -0.237  23.817  0.00  0.00    +0.150 HD
ATOM      5  O   LEU A   2       9.675  -1.057  21.643  0.00  0.00    -0.274 OA
BRANCH   2   6
ATOM      6  CA  LEU A   2       7.364  -0.408  21.230  0.00  0.00    +0.159 C 
BRANCH   6   8
ATOM      7  C   MET A   1       6.666   1.841  22.034  0.00  0.00    +0.230 C 
ATOM      8  N   LEU A   2       6.493   0.479  21.995  0.00  0.00    -0.303 N 
ATOM      9  H   LEU A   2       5.634   0.067  22.350  0.00  0.00    +0.149 HD
ATOM     10  O   MET A   1       7.601   2.414  21.478  0.00  0.00    -0.274 OA
BRANCH   7  11
ATOM     11  CA  MET A   1       5.598   2.609  22.842  0.00  0.00    +0.138 C 
BRANCH  11  12
ATOM     12  N   MET A   1       5.100   1.735  23.923  0.00  0.00    -0.320 NA
ATOM     13  H1  MET A   1       5.746   0.949  24.024  0.00  0.00    +0.119 HD
ATOM     14  H2  MET A   1       5.214   2.252  24.803  0.00  0.00    +0.119 HD
ENDBRANCH  11  12
BRANCH  11  15
ATOM     15  CB  MET A   1       6.222   3.897  23.393  0.00  0.00    +0.038 C 
BRANCH  15  16
ATOM     16  CG  MET A   1       6.730   3.735  24.825  0.00  0.00    +0.071 C 
BRANCH  16  17
ATOM     17  SD  MET A   1       8.079   4.921  25.142  0.00  0.00    -0.164 S 
ATOM     18  CE  MET A   1       8.301   5.530  23.453  0.00  0.00    +0.084 C 
ENDBRANCH  16  17
ENDBRANCH  15  16
ENDBRANCH  11  15
ENDBRANCH   7  11
ENDBRANCH   6   8
BRANCH   6  19
ATOM     19  CB  LEU A   2       7.829   0.234  19.912  0.00  0.00    +0.034 C 
BRANCH  19  20
ATOM     20  CG  LEU A   2       6.936  -0.043  18.685  0.00  0.00    -0.015 C 
ATOM     21  CD2 LEU A   2       6.155   1.196  18.247  0.00  0.00    +0.007 C 
ATOM     22  CD1 LEU A   2       5.955  -1.174  19.006  0.00  0.00    +0.007 C 
ENDBRANCH  19  20
ENDBRANCH   6  19
ENDBRANCH   2   6
ENDBRANCH   1   3
BRANCH   1  23
ATOM     23  C   GLN A   3       8.716  -0.888  25.825  0.00  0.00    +0.234 C 
ATOM     24  N   SER A   4       7.382  -1.198  25.782  0.00  0.00    -0.301 N 
ATOM     25  H   SER A   4       6.915  -1.407  24.902  0.00  0.00    +0.150 HD
ATOM     26  O   GLN A   3       9.315  -0.709  26.887  0.00  0.00    -0.274 OA
BRANCH  24  27
ATOM     27  CA  SER A   4       6.598  -1.465  26.994  0.00  0.00    +0.184 C 
BRANCH  27  28
ATOM     28  C   SER A   4       6.284  -2.971  27.013  0.00  0.00    +0.236 C 
ATOM     29  O   SER A   4       5.131  -3.383  27.150  0.00  0.00    -0.274 OA
ATOM     30  N   ALA A   5       7.354  -3.815  26.822  0.00  0.00    -0.303 N 
ATOM     31  H   ALA A   5       8.298  -3.456  26.718  0.00  0.00    +0.149 HD
BRANCH  30  32
ATOM     32  CA  ALA A   5       7.194  -5.265  26.810  0.00  0.00    +0.156 C 
ATOM     33  CB  ALA A   5       6.603  -5.766  28.124  0.00  0.00    +0.038 C 
BRANCH  32  34
ATOM     34  C   ALA A   5       6.281  -5.660  25.632  0.00  0.00    +0.234 C 
ATOM     35  N   ASP A   6       6.610  -5.087  24.426  0.00  0.00    -0.304 N 
ATOM     36  H   ASP A   6       7.442  -4.502  24.341  0.00  0.00    +0.149 HD
ATOM     37  O   ALA A   5       5.328  -6.436  25.744  0.00  0.00    -0.274 OA
BRANCH  35  38
ATOM     38  CA  ASP A   6       5.957  -5.476  23.179  0.00  0.00    +0.142 C 
BRANCH  38  39
ATOM     39  C   ASP A   6       7.037  -5.968  22.224  0.00  0.00    +0.245 C 
ATOM     40  O   ASP A   6       8.206  -6.139  22.569  0.00  0.00    -0.299 OA
ENDBRANCH  38  39
BRANCH  38  41
ATOM     41  CB  ASP A   6       5.201  -4.317  22.544  0.00  0.00    +0.087 C 
BRANCH  41  42
ATOM     42  CG  ASP A   6       5.150  -3.211  23.554  0.00  0.00    +0.025 C 
ATOM     43  OD1 ASP A   6       5.960  -2.296  23.573  0.00  0.00    -0.851 OA
BRANCH  42  44
ATOM     44  OD2 ASP A   6       4.076  -3.265  24.365  0.00  0.00    -0.526 OA
ATOM     45  HD2 ASP A   6       4.098  -3.989  25.027  0.00  0.00    +0.290 HD
ENDBRANCH  42  44
ENDBRANCH  41  42
ENDBRANCH  38  41
ENDBRANCH  35  38
ENDBRANCH  32  34
ENDBRANCH  30  32
ENDBRANCH  27  28
BRANCH  27  46
ATOM     46  CB  SER A   4       5.323  -0.619  27.052  0.00  0.00    +0.187 C 
BRANCH  46  47
ATOM     47  OG  SER A   4       4.601  -0.668  25.822  0.00  0.00    -0.393 OA
ATOM     48  H   SER A   4       3.668  -0.831  26.052  0.00  0.00    +0.209 HD
ENDBRANCH  46  47
ENDBRANCH  27  46
ENDBRANCH  24  27
ENDBRANCH   1  23
BRANCH   1  49
ATOM     49  CB  GLN A   3      10.463   0.327  24.423  0.00  0.00    +0.041 C 
BRANCH  49  50
ATOM     50  CG  GLN A   3       9.852   1.710  24.207  0.00  0.00    +0.098 C 
BRANCH  50  51
ATOM     51  CD  GLN A   3      10.569   2.543  23.163  0.00  0.00    +0.211 C 
ATOM     52  NE2 GLN A   3      10.375   2.200  21.861  0.00  0.00    -0.329 N 
ATOM     53 HE21 GLN A   3      10.888   2.739  21.172  0.00  0.00    +0.145 HD
ATOM     54 HE22 GLN A   3       9.978   1.322  21.565  0.00  0.00    +0.145 HD
ATOM     55  OE1 GLN A   3      11.230   3.534  23.452  0.00  0.00    -0.276 OA
ENDBRANCH  50  51
ENDBRANCH  49  50
ENDBRANCH   1  49
TORSDOF 25
ENDMDL
MODEL 7
REMARK VINA RESULT:      -5.9      2.751      6.359
REMARK  Name = MLQSAD-mmff94.pdb
REMARK  29 active torsions:
REMARK  status: ('A' for Active; 'I' for Inactive)
REMARK    1  A    between atoms: _1  and  _2
REMARK    2  A    between atoms: _2  and  _3
REMARK    3  A    between atoms: _2  and  _5
REMARK    4  A    between atoms: _5  and  _6
REMARK    5  A    between atoms: _6  and  _7
REMARK    6  A    between atoms: _7  and  _8
REMARK    7  A    between atoms: _18  and  _19
REMARK    8  A    between atoms: _19  and  _20
REMARK    9  A    between atoms: _19  and  _22
REMARK   10  A    between atoms: _22  and  _23
REMARK   11  A    between atoms: _23  and  _24
REMARK   12  A    between atoms: _23  and  _25
REMARK   13  A    between atoms: _37  and  _38
REMARK   14  A    between atoms: _38  and  _39
REMARK   15  A    between atoms: _38  and  _41
REMARK   16  A    between atoms: _41  and  _42
REMARK   17  A    between atoms: _42  and  _43
REMARK   18  A    between atoms: _54  and  _55
REMARK   19  A    between atoms: _55  and  _56
REMARK   20  A    between atoms: _55  and  _58
REMARK   21  A    between atoms: _58  and  _59
REMARK   22  A    between atoms: _65  and  _66
REMARK   23  A    between atoms: _66  and  _67
REMARK   24  A    between atoms: _66  and  _69
REMARK   25  A    between atoms: _75  and  _76
REMARK   26  A    between atoms: _76  and  _77
REMARK   27  A    between atoms: _76  and  _79
REMARK   28  A    between atoms: _79  and  _80
REMARK   29  A    between atoms: _80  and  _81
REMARK                            x       y       z     vdW  Elec       q    Type
REMARK                         _______ _______ _______ _____ _____    ______ ____
ROOT
ATOM      1  CA  GLN A   3       6.015  -2.834  25.935  0.00  0.00    +0.159 C 
ENDROOT
BRANCH   1   3
ATOM      2  C   LEU A   2       5.411  -3.048  23.527  0.00  0.00    +0.234 C 
ATOM      3  N   GLN A   3       6.290  -2.658  24.509  0.00  0.00    -0.302 N 
ATOM      4  H   GLN A   3       7.207  -2.290  24.262  0.00  0.00    +0.150 HD
ATOM      5  O   LEU A   2       4.314  -3.545  23.778  0.00  0.00    -0.274 OA
BRANCH   2   6
ATOM      6  CA  LEU A   2       5.886  -2.781  22.082  0.00  0.00    +0.159 C 
BRANCH   6   8
ATOM      7  C   MET A   1       6.493  -0.659  20.934  0.00  0.00    +0.230 C 
ATOM      8  N   LEU A   2       6.460  -1.438  22.064  0.00  0.00    -0.303 N 
ATOM      9  H   LEU A   2       6.664  -1.026  22.971  0.00  0.00    +0.149 HD
ATOM     10  O   MET A   1       6.100  -1.050  19.837  0.00  0.00    -0.274 OA
BRANCH   7  11
ATOM     11  CA  MET A   1       7.076   0.756  21.138  0.00  0.00    +0.138 C 
BRANCH  11  12
ATOM     12  N   MET A   1       8.181   0.959  20.179  0.00  0.00    -0.320 NA
ATOM     13  H1  MET A   1       7.825   1.505  19.392  0.00  0.00    +0.119 HD
ATOM     14  H2  MET A   1       8.852   1.594  20.626  0.00  0.00    +0.119 HD
ENDBRANCH  11  12
BRANCH  11  15
ATOM     15  CB  MET A   1       5.958   1.788  20.943  0.00  0.00    +0.038 C 
BRANCH  15  16
ATOM     16  CG  MET A   1       6.030   2.929  21.958  0.00  0.00    +0.071 C 
BRANCH  16  17
ATOM     17  SD  MET A   1       4.345   3.430  22.446  0.00  0.00    -0.164 S 
ATOM     18  CE  MET A   1       4.669   5.181  22.765  0.00  0.00    +0.084 C 
ENDBRANCH  16  17
ENDBRANCH  15  16
ENDBRANCH  11  15
ENDBRANCH   7  11
ENDBRANCH   6   8
BRANCH   6  19
ATOM     19  CB  LEU A   2       6.912  -3.854  21.679  0.00  0.00    +0.034 C 
BRANCH  19  20
ATOM     20  CG  LEU A   2       6.476  -5.314  21.914  0.00  0.00    -0.015 C 
ATOM     21  CD2 LEU A   2       7.568  -6.141  22.594  0.00  0.00    +0.007 C 
ATOM     22  CD1 LEU A   2       6.104  -5.964  20.579  0.00  0.00    +0.007 C 
ENDBRANCH  19  20
ENDBRANCH   6  19
ENDBRANCH   2   6
ENDBRANCH   1   3
BRANCH   1  23
ATOM     23  C   GLN A   3       5.337  -1.529  26.404  0.00  0.00    +0.234 C 
ATOM     24  N   SER A   4       6.172  -0.585  26.943  0.00  0.00    -0.301 N 
ATOM     25  H   SER A   4       7.180  -0.729  26.982  0.00  0.00    +0.150 HD
ATOM     26  O   GLN A   3       4.127  -1.339  26.277  0.00  0.00    -0.274 OA
BRANCH  24  27
ATOM     27  CA  SER A   4       5.711   0.765  27.290  0.00  0.00    +0.184 C 
BRANCH  27  28
ATOM     28  C   SER A   4       6.064   1.686  26.111  0.00  0.00    +0.236 C 
ATOM     29  O   SER A   4       5.834   1.354  24.947  0.00  0.00    -0.274 OA
ATOM     30  N   ALA A   5       6.604   2.909  26.438  0.00  0.00    -0.303 N 
ATOM     31  H   ALA A   5       6.793   3.162  27.404  0.00  0.00    +0.149 HD
BRANCH  30  32
ATOM     32  CA  ALA A   5       6.978   3.881  25.417  0.00  0.00    +0.156 C 
ATOM     33  CB  ALA A   5       6.743   5.309  25.900  0.00  0.00    +0.038 C 
BRANCH  32  34
ATOM     34  C   ALA A   5       8.463   3.681  25.053  0.00  0.00    +0.234 C 
ATOM     35  N   ASP A   6       8.844   2.371  24.874  0.00  0.00    -0.304 N 
ATOM     36  H   ASP A   6       8.154   1.621  24.920  0.00  0.00    +0.149 HD
ATOM     37  O   ALA A   5       9.260   4.613  24.921  0.00  0.00    -0.274 OA
BRANCH  35  38
ATOM     38  CA  ASP A   6      10.166   2.010  24.368  0.00  0.00    +0.142 C 
BRANCH  38  39
ATOM     39  C   ASP A   6      10.158   2.225  22.860  0.00  0.00    +0.245 C 
ATOM     40  O   ASP A   6      10.285   1.304  22.053  0.00  0.00    -0.299 OA
ENDBRANCH  38  39
BRANCH  38  41
ATOM     41  CB  ASP A   6      10.522   0.564  24.678  0.00  0.00    +0.087 C 
BRANCH  41  42
ATOM     42  CG  ASP A   6       9.280  -0.102  25.188  0.00  0.00    +0.025 C 
ATOM     43  OD1 ASP A   6       8.428  -0.569  24.445  0.00  0.00    -0.851 OA
BRANCH  42  44
ATOM     44  OD2 ASP A   6       9.242  -0.229  26.528  0.00  0.00    -0.526 OA
ATOM     45  HD2 ASP A   6       9.224  -1.156  26.852  0.00  0.00    +0.290 HD
ENDBRANCH  42  44
ENDBRANCH  41  42
ENDBRANCH  38  41
ENDBRANCH  35  38
ENDBRANCH  32  34
ENDBRANCH  30  32
ENDBRANCH  27  28
BRANCH  27  46
ATOM     46  CB  SER A   4       6.327   1.261  28.603  0.00  0.00    +0.187 C 
BRANCH  46  47
ATOM     47  OG  SER A   4       7.744   1.101  28.615  0.00  0.00    -0.393 OA
ATOM     48  H   SER A   4       8.018   1.095  29.549  0.00  0.00    +0.209 HD
ENDBRANCH  46  47
ENDBRANCH  27  46
ENDBRANCH  24  27
ENDBRANCH   1  23
BRANCH   1  49
ATOM     49  CB  GLN A   3       7.318  -3.105  26.700  0.00  0.00    +0.041 C 
BRANCH  49  50
ATOM     50  CG  GLN A   3       8.418  -3.729  25.844  0.00  0.00    +0.098 C 
BRANCH  50  51
ATOM     51  CD  GLN A   3       8.569  -5.225  26.031  0.00  0.00    +0.211 C 
ATOM     52  NE2 GLN A   3       9.755  -5.777  25.657  0.00  0.00    -0.329 N 
ATOM     53 HE21 GLN A   3       9.833  -6.783  25.751  0.00  0.00    +0.145 HD
ATOM     54 HE22 GLN A   3      10.433  -5.309  25.076  0.00  0.00    +0.145 HD
ATOM     55  OE1 GLN A   3       7.708  -5.910  26.570  0.00  0.00    -0.276 OA
ENDBRANCH  50  51
ENDBRANCH  49  50
ENDBRANCH   1  49
TORSDOF 25
ENDMDL
MODEL 8
REMARK VINA RESULT:      -5.8      1.560      1.936
REMARK  Name = MLQSAD-mmff94.pdb
REMARK  29 active torsions:
REMARK  status: ('A' for Active; 'I' for Inactive)
REMARK    1  A    between atoms: _1  and  _2
REMARK    2  A    between atoms: _2  and  _3
REMARK    3  A    between atoms: _2  and  _5
REMARK    4  A    between atoms: _5  and  _6
REMARK    5  A    between atoms: _6  and  _7
REMARK    6  A    between atoms: _7  and  _8
REMARK    7  A    between atoms: _18  and  _19
REMARK    8  A    between atoms: _19  and  _20
REMARK    9  A    between atoms: _19  and  _22
REMARK   10  A    between atoms: _22  and  _23
REMARK   11  A    between atoms: _23  and  _24
REMARK   12  A    between atoms: _23  and  _25
REMARK   13  A    between atoms: _37  and  _38
REMARK   14  A    between atoms: _38  and  _39
REMARK   15  A    between atoms: _38  and  _41
REMARK   16  A    between atoms: _41  and  _42
REMARK   17  A    between atoms: _42  and  _43
REMARK   18  A    between atoms: _54  and  _55
REMARK   19  A    between atoms: _55  and  _56
REMARK   20  A    between atoms: _55  and  _58
REMARK   21  A    between atoms: _58  and  _59
REMARK   22  A    between atoms: _65  and  _66
REMARK   23  A    between atoms: _66  and  _67
REMARK   24  A    between atoms: _66  and  _69
REMARK   25  A    between atoms: _75  and  _76
REMARK   26  A    between atoms: _76  and  _77
REMARK   27  A    between atoms: _76  and  _79
REMARK   28  A    between atoms: _79  and  _80
REMARK   29  A    between atoms: _80  and  _81
REMARK                            x       y       z     vdW  Elec       q    Type
REMARK                         _______ _______ _______ _____ _____    ______ ____
ROOT
ATOM      1  CA  GLN A   3       9.064  -0.431  21.107  0.00  0.00    +0.159 C 
ENDROOT
BRANCH   1   3
ATOM      2  C   LEU A   2       7.487  -1.934  22.316  0.00  0.00    +0.234 C 
ATOM      3  N   GLN A   3       8.643  -1.743  21.599  0.00  0.00    -0.302 N 
ATOM      4  H   GLN A   3       9.286  -2.517  21.444  0.00  0.00    +0.150 HD
ATOM      5  O   LEU A   2       6.705  -1.018  22.571  0.00  0.00    -0.274 OA
BRANCH   2   6
ATOM      6  CA  LEU A   2       7.220  -3.391  22.750  0.00  0.00    +0.159 C 
BRANCH   6   8
ATOM      7  C   MET A   1       8.193  -4.384  24.814  0.00  0.00    +0.230 C 
ATOM      8  N   LEU A   2       7.403  -3.445  24.198  0.00  0.00    -0.303 N 
ATOM      9  H   LEU A   2       7.070  -2.639  24.721  0.00  0.00    +0.149 HD
ATOM     10  O   MET A   1       8.760  -5.288  24.204  0.00  0.00    -0.274 OA
BRANCH   7  11
ATOM     11  CA  MET A   1       8.313  -4.228  26.345  0.00  0.00    +0.138 C 
BRANCH  11  12
ATOM     12  N   MET A   1       8.928  -2.918  26.644  0.00  0.00    -0.320 NA
ATOM     13  H1  MET A   1       8.797  -2.722  27.639  0.00  0.00    +0.119 HD
ATOM     14  H2  MET A   1       9.943  -3.037  26.556  0.00  0.00    +0.119 HD
ENDBRANCH  11  12
BRANCH  11  15
ATOM     15  CB  MET A   1       6.918  -4.355  26.969  0.00  0.00    +0.038 C 
BRANCH  15  16
ATOM     16  CG  MET A   1       6.324  -5.752  26.795  0.00  0.00    +0.071 C 
BRANCH  16  17
ATOM     17  SD  MET A   1       4.989  -6.014  28.011  0.00  0.00    -0.164 S 
ATOM     18  CE  MET A   1       6.013  -6.400  29.452  0.00  0.00    +0.084 C 
ENDBRANCH  16  17
ENDBRANCH  15  16
ENDBRANCH  11  15
ENDBRANCH   7  11
ENDBRANCH   6   8
BRANCH   6  19
ATOM     19  CB  LEU A   2       5.796  -3.793  22.331  0.00  0.00    +0.034 C 
BRANCH  19  20
ATOM     20  CG  LEU A   2       5.592  -5.289  22.017  0.00  0.00    -0.015 C 
ATOM     21  CD2 LEU A   2       5.256  -6.102  23.269  0.00  0.00    +0.007 C 
ATOM     22  CD1 LEU A   2       6.856  -5.857  21.366  0.00  0.00    +0.007 C 
ENDBRANCH  19  20
ENDBRANCH   6  19
ENDBRANCH   2   6
ENDBRANCH   1   3
BRANCH   1  23
ATOM     23  C   GLN A   3       9.718   0.287  22.306  0.00  0.00    +0.234 C 
ATOM     24  N   SER A   4       9.294   1.569  22.535  0.00  0.00    -0.301 N 
ATOM     25  H   SER A   4       8.559   1.993  21.972  0.00  0.00    +0.150 HD
ATOM     26  O   GLN A   3      10.549  -0.269  23.026  0.00  0.00    -0.274 OA
BRANCH  24  27
ATOM     27  CA  SER A   4       9.700   2.330  23.724  0.00  0.00    +0.184 C 
BRANCH  27  28
ATOM     28  C   SER A   4       8.428   2.953  24.324  0.00  0.00    +0.236 C 
ATOM     29  O   SER A   4       8.397   3.348  25.491  0.00  0.00    -0.274 OA
ATOM     30  N   ALA A   5       7.355   3.080  23.472  0.00  0.00    -0.303 N 
ATOM     31  H   ALA A   5       7.397   2.741  22.515  0.00  0.00    +0.149 HD
BRANCH  30  32
ATOM     32  CA  ALA A   5       6.091   3.660  23.911  0.00  0.00    +0.156 C 
ATOM     33  CB  ALA A   5       5.390   4.388  22.768  0.00  0.00    +0.038 C 
BRANCH  32  34
ATOM     34  C   ALA A   5       5.186   2.536  24.458  0.00  0.00    +0.234 C 
ATOM     35  N   ASP A   6       5.756   1.762  25.442  0.00  0.00    -0.304 N 
ATOM     36  H   ASP A   6       6.683   1.985  25.804  0.00  0.00    +0.149 HD
ATOM     37  O   ALA A   5       4.036   2.338  24.059  0.00  0.00    -0.274 OA
BRANCH  35  38
ATOM     38  CA  ASP A   6       4.989   0.763  26.183  0.00  0.00    +0.142 C 
BRANCH  38  39
ATOM     39  C   ASP A   6       4.391   1.452  27.403  0.00  0.00    +0.245 C 
ATOM     40  O   ASP A   6       5.065   2.107  28.198  0.00  0.00    -0.299 OA
ENDBRANCH  38  39
BRANCH  38  41
ATOM     41  CB  ASP A   6       5.854  -0.407  26.627  0.00  0.00    +0.087 C 
BRANCH  41  42
ATOM     42  CG  ASP A   6       7.283  -0.022  26.390  0.00  0.00    +0.025 C 
ATOM     43  OD1 ASP A   6       7.931  -0.438  25.441  0.00  0.00    -0.851 OA
BRANCH  42  44
ATOM     44  OD2 ASP A   6       7.748   0.900  27.256  0.00  0.00    -0.526 OA
ATOM     45  HD2 ASP A   6       7.765   0.609  28.193  0.00  0.00    +0.290 HD
ENDBRANCH  42  44
ENDBRANCH  41  42
ENDBRANCH  38  41
ENDBRANCH  35  38
ENDBRANCH  32  34
ENDBRANCH  30  32
ENDBRANCH  27  28
BRANCH  27  46
ATOM     46  CB  SER A   4      10.751   3.395  23.393  0.00  0.00    +0.187 C 
BRANCH  46  47
ATOM     47  OG  SER A   4      10.183   4.704  23.360  0.00  0.00    -0.393 OA
ATOM     48  H   SER A   4      10.826   5.299  23.785  0.00  0.00    +0.209 HD
ENDBRANCH  46  47
ENDBRANCH  27  46
ENDBRANCH  24  27
ENDBRANCH   1  23
BRANCH   1  49
ATOM     49  CB  GLN A   3       7.856   0.348  20.567  0.00  0.00    +0.041 C 
BRANCH  49  50
ATOM     50  CG  GLN A   3       7.641   0.189  19.064  0.00  0.00    +0.098 C 
BRANCH  50  51
ATOM     51  CD  GLN A   3       6.284  -0.375  18.693  0.00  0.00    +0.211 C 
ATOM     52  NE2 GLN A   3       5.470  -0.747  19.717  0.00  0.00    -0.329 N 
ATOM     53 HE21 GLN A   3       4.580  -1.157  19.459  0.00  0.00    +0.145 HD
ATOM     54 HE22 GLN A   3       5.786  -0.877  20.666  0.00  0.00    +0.145 HD
ATOM     55  OE1 GLN A   3       5.886  -0.423  17.535  0.00  0.00    -0.276 OA
ENDBRANCH  50  51
ENDBRANCH  49  50
ENDBRANCH   1  49
TORSDOF 25
ENDMDL
MODEL 9
REMARK VINA RESULT:      -5.8      2.475      6.329
REMARK  Name = MLQSAD-mmff94.pdb
REMARK  29 active torsions:
REMARK  status: ('A' for Active; 'I' for Inactive)
REMARK    1  A    between atoms: _1  and  _2
REMARK    2  A    between atoms: _2  and  _3
REMARK    3  A    between atoms: _2  and  _5
REMARK    4  A    between atoms: _5  and  _6
REMARK    5  A    between atoms: _6  and  _7
REMARK    6  A    between atoms: _7  and  _8
REMARK    7  A    between atoms: _18  and  _19
REMARK    8  A    between atoms: _19  and  _20
REMARK    9  A    between atoms: _19  and  _22
REMARK   10  A    between atoms: _22  and  _23
REMARK   11  A    between atoms: _23  and  _24
REMARK   12  A    between atoms: _23  and  _25
REMARK   13  A    between atoms: _37  and  _38
REMARK   14  A    between atoms: _38  and  _39
REMARK   15  A    between atoms: _38  and  _41
REMARK   16  A    between atoms: _41  and  _42
REMARK   17  A    between atoms: _42  and  _43
REMARK   18  A    between atoms: _54  and  _55
REMARK   19  A    between atoms: _55  and  _56
REMARK   20  A    between atoms: _55  and  _58
REMARK   21  A    between atoms: _58  and  _59
REMARK   22  A    between atoms: _65  and  _66
REMARK   23  A    between atoms: _66  and  _67
REMARK   24  A    between atoms: _66  and  _69
REMARK   25  A    between atoms: _75  and  _76
REMARK   26  A    between atoms: _76  and  _77
REMARK   27  A    between atoms: _76  and  _79
REMARK   28  A    between atoms: _79  and  _80
REMARK   29  A    between atoms: _80  and  _81
REMARK                            x       y       z     vdW  Elec       q    Type
REMARK                         _______ _______ _______ _____ _____    ______ ____
ROOT
ATOM      1  CA  GLN A   3      10.128   1.822  23.168  0.00  0.00    +0.159 C 
ENDROOT
BRANCH   1   3
ATOM      2  C   LEU A   2       9.213   0.097  21.620  0.00  0.00    +0.234 C 
ATOM      3  N   GLN A   3       9.049   1.233  22.374  0.00  0.00    -0.302 N 
ATOM      4  H   GLN A   3       8.169   1.745  22.348  0.00  0.00    +0.150 HD
ATOM      5  O   LEU A   2      10.274  -0.527  21.581  0.00  0.00    -0.274 OA
BRANCH   2   6
ATOM      6  CA  LEU A   2       7.956  -0.364  20.851  0.00  0.00    +0.159 C 
BRANCH   6   8
ATOM      7  C   MET A   1       6.712  -1.215  22.830  0.00  0.00    +0.230 C 
ATOM      8  N   LEU A   2       7.349  -1.437  21.634  0.00  0.00    -0.303 N 
ATOM      9  H   LEU A   2       7.250  -2.333  21.165  0.00  0.00    +0.149 HD
ATOM     10  O   MET A   1       6.654  -0.110  23.365  0.00  0.00    -0.274 OA
BRANCH   7  11
ATOM     11  CA  MET A   1       6.074  -2.469  23.468  0.00  0.00    +0.138 C 
BRANCH  11  12
ATOM     12  N   MET A   1       4.972  -2.043  24.355  0.00  0.00    -0.320 NA
ATOM     13  H1  MET A   1       4.149  -2.609  24.137  0.00  0.00    +0.119 HD
ATOM     14  H2  MET A   1       5.220  -2.339  25.305  0.00  0.00    +0.119 HD
ENDBRANCH  11  12
BRANCH  11  15
ATOM     15  CB  MET A   1       5.579  -3.398  22.353  0.00  0.00    +0.038 C 
BRANCH  15  16
ATOM     16  CG  MET A   1       4.804  -4.599  22.892  0.00  0.00    +0.071 C 
BRANCH  16  17
ATOM     17  SD  MET A   1       5.694  -6.141  22.492  0.00  0.00    -0.164 S 
ATOM     18  CE  MET A   1       7.080  -5.421  21.580  0.00  0.00    +0.084 C 
ENDBRANCH  16  17
ENDBRANCH  15  16
ENDBRANCH  11  15
ENDBRANCH   7  11
ENDBRANCH   6   8
BRANCH   6  19
ATOM     19  CB  LEU A   2       7.005   0.831  20.671  0.00  0.00    +0.034 C 
BRANCH  19  20
ATOM     20  CG  LEU A   2       6.375   0.974  19.271  0.00  0.00    -0.015 C 
ATOM     21  CD2 LEU A   2       4.963   1.560  19.329  0.00  0.00    +0.007 C 
ATOM     22  CD1 LEU A   2       6.330  -0.393  18.582  0.00  0.00    +0.007 C 
ENDBRANCH  19  20
ENDBRANCH   6  19
ENDBRANCH   2   6
ENDBRANCH   1   3
BRANCH   1  23
ATOM     23  C   GLN A   3      10.302   0.908  24.399  0.00  0.00    +0.234 C 
ATOM     24  N   SER A   4       9.146   0.401  24.932  0.00  0.00    -0.301 N 
ATOM     25  H   SER A   4       8.239   0.585  24.504  0.00  0.00    +0.150 HD
ATOM     26  O   GLN A   3      11.411   0.632  24.857  0.00  0.00    -0.274 OA
BRANCH  24  27
ATOM     27  CA  SER A   4       9.148  -0.604  26.002  0.00  0.00    +0.184 C 
BRANCH  27  28
ATOM     28  C   SER A   4       9.087  -1.987  25.331  0.00  0.00    +0.236 C 
ATOM     29  O   SER A   4       9.550  -2.172  24.205  0.00  0.00    -0.274 OA
ATOM     30  N   ALA A   5       8.532  -2.999  26.080  0.00  0.00    -0.303 N 
ATOM     31  H   ALA A   5       8.149  -2.824  27.004  0.00  0.00    +0.149 HD
BRANCH  30  32
ATOM     32  CA  ALA A   5       8.419  -4.360  25.566  0.00  0.00    +0.156 C 
ATOM     33  CB  ALA A   5       9.682  -5.165  25.853  0.00  0.00    +0.038 C 
BRANCH  32  34
ATOM     34  C   ALA A   5       7.196  -5.041  26.212  0.00  0.00    +0.234 C 
ATOM     35  N   ASP A   6       6.601  -4.322  27.224  0.00  0.00    -0.304 N 
ATOM     36  H   ASP A   6       6.930  -3.385  27.456  0.00  0.00    +0.149 HD
ATOM     37  O   ALA A   5       6.766  -6.141  25.857  0.00  0.00    -0.274 OA
BRANCH  35  38
ATOM     38  CA  ASP A   6       5.340  -4.740  27.832  0.00  0.00    +0.142 C 
BRANCH  38  39
ATOM     39  C   ASP A   6       4.347  -3.596  27.670  0.00  0.00    +0.245 C 
ATOM     40  O   ASP A   6       4.677  -2.473  27.290  0.00  0.00    -0.299 OA
ENDBRANCH  38  39
BRANCH  38  41
ATOM     41  CB  ASP A   6       5.500  -5.074  29.308  0.00  0.00    +0.087 C 
BRANCH  41  42
ATOM     42  CG  ASP A   6       5.906  -6.515  29.397  0.00  0.00    +0.025 C 
ATOM     43  OD1 ASP A   6       6.401  -7.000  30.404  0.00  0.00    -0.851 OA
BRANCH  42  44
ATOM     44  OD2 ASP A   6       5.580  -7.239  28.309  0.00  0.00    -0.526 OA
ATOM     45  HD2 ASP A   6       4.739  -7.739  28.386  0.00  0.00    +0.290 HD
ENDBRANCH  42  44
ENDBRANCH  41  42
ENDBRANCH  38  41
ENDBRANCH  35  38
ENDBRANCH  32  34
ENDBRANCH  30  32
ENDBRANCH  27  28
BRANCH  27  46
ATOM     46  CB  SER A   4       7.991  -0.399  26.986  0.00  0.00    +0.187 C 
BRANCH  46  47
ATOM     47  OG  SER A   4       6.726  -0.621  26.365  0.00  0.00    -0.393 OA
ATOM     48  H   SER A   4       6.725  -1.543  26.052  0.00  0.00    +0.209 HD
ENDBRANCH  46  47
ENDBRANCH  27  46
ENDBRANCH  24  27
ENDBRANCH   1  23
BRANCH   1  49
ATOM     49  CB  GLN A   3       9.770   3.259  23.572  0.00  0.00    +0.041 C 
BRANCH  49  50
ATOM     50  CG  GLN A   3       8.271   3.495  23.747  0.00  0.00    +0.098 C 
BRANCH  50  51
ATOM     51  CD  GLN A   3       7.676   4.445  22.727  0.00  0.00    +0.211 C 
ATOM     52  NE2 GLN A   3       8.236   5.681  22.634  0.00  0.00    -0.329 N 
ATOM     53 HE21 GLN A   3       7.808   6.321  21.976  0.00  0.00    +0.145 HD
ATOM     54 HE22 GLN A   3       8.855   6.071  23.329  0.00  0.00    +0.145 HD
ATOM     55  OE1 GLN A   3       6.786   4.107  21.955  0.00  0.00    -0.276 OA
ENDBRANCH  50  51
ENDBRANCH  49  50
ENDBRANCH   1  49
TORSDOF 25
ENDMDL
MODEL 10
REMARK VINA RESULT:      -5.8      1.499      2.677
REMARK  Name = MLQSAD-mmff94.pdb
REMARK  29 active torsions:
REMARK  status: ('A' for Active; 'I' for Inactive)
REMARK    1  A    between atoms: _1  and  _2
REMARK    2  A    between atoms: _2  and  _3
REMARK    3  A    between atoms: _2  and  _5
REMARK    4  A    between atoms: _5  and  _6
REMARK    5  A    between atoms: _6  and  _7
REMARK    6  A    between atoms: _7  and  _8
REMARK    7  A    between atoms: _18  and  _19
REMARK    8  A    between atoms: _19  and  _20
REMARK    9  A    between atoms: _19  and  _22
REMARK   10  A    between atoms: _22  and  _23
REMARK   11  A    between atoms: _23  and  _24
REMARK   12  A    between atoms: _23  and  _25
REMARK   13  A    between atoms: _37  and  _38
REMARK   14  A    between atoms: _38  and  _39
REMARK   15  A    between atoms: _38  and  _41
REMARK   16  A    between atoms: _41  and  _42
REMARK   17  A    between atoms: _42  and  _43
REMARK   18  A    between atoms: _54  and  _55
REMARK   19  A    between atoms: _55  and  _56
REMARK   20  A    between atoms: _55  and  _58
REMARK   21  A    between atoms: _58  and  _59
REMARK   22  A    between atoms: _65  and  _66
REMARK   23  A    between atoms: _66  and  _67
REMARK   24  A    between atoms: _66  and  _69
REMARK   25  A    between atoms: _75  and  _76
REMARK   26  A    between atoms: _76  and  _77
REMARK   27  A    between atoms: _76  and  _79
REMARK   28  A    between atoms: _79  and  _80
REMARK   29  A    between atoms: _80  and  _81
REMARK                            x       y       z     vdW  Elec       q    Type
REMARK                         _______ _______ _______ _____ _____    ______ ____
ROOT
ATOM      1  CA  GLN A   3       9.913  -0.059  22.389  0.00  0.00    +0.159 C 
ENDROOT
BRANCH   1   3
ATOM      2  C   LEU A   2       9.342  -2.189  23.548  0.00  0.00    +0.234 C 
ATOM      3  N   GLN A   3       9.011  -0.913  23.161  0.00  0.00    -0.302 N 
ATOM      4  H   GLN A   3       8.081  -0.543  23.349  0.00  0.00    +0.150 HD
ATOM      5  O   LEU A   2      10.436  -2.695  23.299  0.00  0.00    -0.274 OA
BRANCH   2   6
ATOM      6  CA  LEU A   2       8.254  -2.930  24.353  0.00  0.00    +0.159 C 
BRANCH   6   8
ATOM      7  C   MET A   1       6.728  -3.760  22.572  0.00  0.00    +0.230 C 
ATOM      8  N   LEU A   2       7.727  -3.982  23.488  0.00  0.00    -0.303 N 
ATOM      9  H   LEU A   2       8.261  -4.846  23.457  0.00  0.00    +0.149 HD
ATOM     10  O   MET A   1       6.157  -2.678  22.450  0.00  0.00    -0.274 OA
BRANCH   7  11
ATOM     11  CA  MET A   1       6.360  -4.983  21.704  0.00  0.00    +0.138 C 
BRANCH  11  12
ATOM     12  N   MET A   1       7.464  -5.962  21.770  0.00  0.00    -0.320 NA
ATOM     13  H1  MET A   1       8.020  -5.876  20.916  0.00  0.00    +0.119 HD
ATOM     14  H2  MET A   1       8.104  -5.644  22.505  0.00  0.00    +0.119 HD
ENDBRANCH  11  12
BRANCH  11  15
ATOM     15  CB  MET A   1       5.041  -5.577  22.213  0.00  0.00    +0.038 C 
BRANCH  15  16
ATOM     16  CG  MET A   1       5.199  -6.286  23.558  0.00  0.00    +0.071 C 
BRANCH  16  17
ATOM     17  SD  MET A   1       3.627  -6.219  24.481  0.00  0.00    -0.164 S 
ATOM     18  CE  MET A   1       4.207  -6.914  26.048  0.00  0.00    +0.084 C 
ENDBRANCH  16  17
ENDBRANCH  15  16
ENDBRANCH  11  15
ENDBRANCH   7  11
ENDBRANCH   6   8
BRANCH   6  19
ATOM     19  CB  LEU A   2       8.873  -3.498  25.642  0.00  0.00    +0.034 C 
BRANCH  19  20
ATOM     20  CG  LEU A   2       7.872  -3.872  26.753  0.00  0.00    -0.015 C 
ATOM     21  CD2 LEU A   2       7.530  -5.363  26.745  0.00  0.00    +0.007 C 
ATOM     22  CD1 LEU A   2       6.587  -3.056  26.586  0.00  0.00    +0.007 C 
ENDBRANCH  19  20
ENDBRANCH   6  19
ENDBRANCH   2   6
ENDBRANCH   1   3
BRANCH   1  23
ATOM     23  C   GLN A   3      10.428   1.017  23.369  0.00  0.00    +0.234 C 
ATOM     24  N   SER A   4      10.474   2.295  22.879  0.00  0.00    -0.301 N 
ATOM     25  H   SER A   4      10.141   2.517  21.942  0.00  0.00    +0.150 HD
ATOM     26  O   GLN A   3      10.753   0.745  24.525  0.00  0.00    -0.274 OA
BRANCH  24  27
ATOM     27  CA  SER A   4      10.789   3.451  23.728  0.00  0.00    +0.184 C 
BRANCH  27  28
ATOM     28  C   SER A   4       9.477   4.219  23.961  0.00  0.00    +0.236 C 
ATOM     29  O   SER A   4       9.274   4.837  25.007  0.00  0.00    -0.274 OA
ATOM     30  N   ALA A   5       8.576   4.208  22.921  0.00  0.00    -0.303 N 
ATOM     31  H   ALA A   5       8.759   3.686  22.069  0.00  0.00    +0.149 HD
BRANCH  30  32
ATOM     32  CA  ALA A   5       7.296   4.902  23.008  0.00  0.00    +0.156 C 
ATOM     33  CB  ALA A   5       7.105   5.859  21.835  0.00  0.00    +0.038 C 
BRANCH  32  34
ATOM     34  C   ALA A   5       6.160   3.858  23.032  0.00  0.00    +0.234 C 
ATOM     35  N   ASP A   6       5.829   3.391  24.283  0.00  0.00    -0.304 N 
ATOM     36  H   ASP A   6       6.276   3.778  25.114  0.00  0.00    +0.149 HD
ATOM     37  O   ALA A   5       5.578   3.467  22.017  0.00  0.00    -0.274 OA
BRANCH  35  38
ATOM     38  CA  ASP A   6       4.673   2.528  24.507  0.00  0.00    +0.142 C 
BRANCH  38  39
ATOM     39  C   ASP A   6       3.590   3.367  25.173  0.00  0.00    +0.245 C 
ATOM     40  O   ASP A   6       3.837   4.233  26.011  0.00  0.00    -0.299 OA
ENDBRANCH  38  39
BRANCH  38  41
ATOM     41  CB  ASP A   6       5.012   1.335  25.388  0.00  0.00    +0.087 C 
BRANCH  41  42
ATOM     42  CG  ASP A   6       6.143   0.602  24.732  0.00  0.00    +0.025 C 
ATOM     43  OD1 ASP A   6       7.316   0.880  24.932  0.00  0.00    -0.851 OA
BRANCH  42  44
ATOM     44  OD2 ASP A   6       5.748  -0.450  23.988  0.00  0.00    -0.526 OA
ATOM     45  HD2 ASP A   6       4.885  -0.836  24.250  0.00  0.00    +0.290 HD
ENDBRANCH  42  44
ENDBRANCH  41  42
ENDBRANCH  38  41
ENDBRANCH  35  38
ENDBRANCH  32  34
ENDBRANCH  30  32
ENDBRANCH  27  28
BRANCH  27  46
ATOM     46  CB  SER A   4      11.866   4.345  23.105  0.00  0.00    +0.187 C 
BRANCH  46  47
ATOM     47  OG  SER A   4      11.378   5.662  22.853  0.00  0.00    -0.393 OA
ATOM     48  H   SER A   4      10.693   5.580  22.165  0.00  0.00    +0.209 HD
ENDBRANCH  46  47
ENDBRANCH  27  46
ENDBRANCH  24  27
ENDBRANCH   1  23
BRANCH   1  49
ATOM     49  CB  GLN A   3       9.169   0.566  21.200  0.00  0.00    +0.041 C 
BRANCH  49  50
ATOM     50  CG  GLN A   3       7.658   0.347  21.234  0.00  0.00    +0.098 C 
BRANCH  50  51
ATOM     51  CD  GLN A   3       7.078  -0.149  19.925  0.00  0.00    +0.211 C 
ATOM     52  NE2 GLN A   3       5.987  -0.958  20.001  0.00  0.00    -0.329 N 
ATOM     53 HE21 GLN A   3       5.629  -1.315  19.123  0.00  0.00    +0.145 HD
ATOM     54 HE22 GLN A   3       5.685  -1.415  20.848  0.00  0.00    +0.145 HD
ATOM     55  OE1 GLN A   3       7.504   0.218  18.836  0.00  0.00    -0.276 OA
ENDBRANCH  50  51
ENDBRANCH  49  50
ENDBRANCH   1  49
TORSDOF 25
ENDMDL
MODEL 11
REMARK VINA RESULT:      -5.8      2.640      7.413
REMARK  Name = MLQSAD-mmff94.pdb
REMARK  29 active torsions:
REMARK  status: ('A' for Active; 'I' for Inactive)
REMARK    1  A    between atoms: _1  and  _2
REMARK    2  A    between atoms: _2  and  _3
REMARK    3  A    between atoms: _2  and  _5
REMARK    4  A    between atoms: _5  and  _6
REMARK    5  A    between atoms: _6  and  _7
REMARK    6  A    between atoms: _7  and  _8
REMARK    7  A    between atoms: _18  and  _19
REMARK    8  A    between atoms: _19  and  _20
REMARK    9  A    between atoms: _19  and  _22
REMARK   10  A    between atoms: _22  and  _23
REMARK   11  A    between atoms: _23  and  _24
REMARK   12  A    between atoms: _23  and  _25
REMARK   13  A    between atoms: _37  and  _38
REMARK   14  A    between atoms: _38  and  _39
REMARK   15  A    between atoms: _38  and  _41
REMARK   16  A    between atoms: _41  and  _42
REMARK   17  A    between atoms: _42  and  _43
REMARK   18  A    between atoms: _54  and  _55
REMARK   19  A    between atoms: _55  and  _56
REMARK   20  A    between atoms: _55  and  _58
REMARK   21  A    between atoms: _58  and  _59
REMARK   22  A    between atoms: _65  and  _66
REMARK   23  A    between atoms: _66  and  _67
REMARK   24  A    between atoms: _66  and  _69
REMARK   25  A    between atoms: _75  and  _76
REMARK   26  A    between atoms: _76  and  _77
REMARK   27  A    between atoms: _76  and  _79
REMARK   28  A    between atoms: _79  and  _80
REMARK   29  A    between atoms: _80  and  _81
REMARK                            x       y       z     vdW  Elec       q    Type
REMARK                         _______ _______ _______ _____ _____    ______ ____
ROOT
ATOM      1  CA  GLN A   3       9.389  -0.384  24.162  0.00  0.00    +0.159 C 
ENDROOT
BRANCH   1   3
ATOM      2  C   LEU A   2       8.456  -0.052  21.876  0.00  0.00    +0.234 C 
ATOM      3  N   GLN A   3       8.430   0.203  23.226  0.00  0.00    -0.302 N 
ATOM      4  H   GLN A   3       7.768   0.875  23.610  0.00  0.00    +0.150 HD
ATOM      5  O   LEU A   2       9.270  -0.818  21.361  0.00  0.00    -0.274 OA
BRANCH   2   6
ATOM      6  CA  LEU A   2       7.362   0.665  21.055  0.00  0.00    +0.159 C 
BRANCH   6   8
ATOM      7  C   MET A   1       6.742   2.704  22.339  0.00  0.00    +0.230 C 
ATOM      8  N   LEU A   2       7.474   2.090  21.352  0.00  0.00    -0.303 N 
ATOM      9  H   LEU A   2       8.256   2.577  20.924  0.00  0.00    +0.149 HD
ATOM     10  O   MET A   1       5.894   2.117  23.008  0.00  0.00    -0.274 OA
BRANCH   7  11
ATOM     11  CA  MET A   1       7.055   4.202  22.544  0.00  0.00    +0.138 C 
BRANCH  11  12
ATOM     12  N   MET A   1       5.880   4.995  22.129  0.00  0.00    -0.320 NA
ATOM     13  H1  MET A   1       5.924   5.902  22.599  0.00  0.00    +0.119 HD
ATOM     14  H2  MET A   1       6.013   5.232  21.140  0.00  0.00    +0.119 HD
ENDBRANCH  11  12
BRANCH  11  15
ATOM     15  CB  MET A   1       7.410   4.439  24.017  0.00  0.00    +0.038 C 
BRANCH  15  16
ATOM     16  CG  MET A   1       6.287   5.134  24.785  0.00  0.00    +0.071 C 
BRANCH  16  17
ATOM     17  SD  MET A   1       5.701   4.057  26.136  0.00  0.00    -0.164 S 
ATOM     18  CE  MET A   1       7.186   3.042  26.332  0.00  0.00    +0.084 C 
ENDBRANCH  16  17
ENDBRANCH  15  16
ENDBRANCH  11  15
ENDBRANCH   7  11
ENDBRANCH   6   8
BRANCH   6  19
ATOM     19  CB  LEU A   2       7.572   0.367  19.561  0.00  0.00    +0.034 C 
BRANCH  19  20
ATOM     20  CG  LEU A   2       6.302  -0.014  18.774  0.00  0.00    -0.015 C 
ATOM     21  CD2 LEU A   2       5.207   1.047  18.894  0.00  0.00    +0.007 C 
ATOM     22  CD1 LEU A   2       5.765  -1.357  19.278  0.00  0.00    +0.007 C 
ENDBRANCH  19  20
ENDBRANCH   6  19
ENDBRANCH   2   6
ENDBRANCH   1   3
BRANCH   1  23
ATOM     23  C   GLN A   3       8.596  -0.692  25.450  0.00  0.00    +0.234 C 
ATOM     24  N   SER A   4       7.232  -0.612  25.343  0.00  0.00    -0.301 N 
ATOM     25  H   SER A   4       6.781  -0.408  24.453  0.00  0.00    +0.150 HD
ATOM     26  O   GLN A   3       9.154  -1.015  26.500  0.00  0.00    -0.274 OA
BRANCH  24  27
ATOM     27  CA  SER A   4       6.334  -1.027  26.428  0.00  0.00    +0.184 C 
BRANCH  27  28
ATOM     28  C   SER A   4       6.134  -2.547  26.301  0.00  0.00    +0.236 C 
ATOM     29  O   SER A   4       5.207  -3.018  25.641  0.00  0.00    -0.274 OA
ATOM     30  N   ALA A   5       7.074  -3.334  26.926  0.00  0.00    -0.303 N 
ATOM     31  H   ALA A   5       7.827  -2.927  27.472  0.00  0.00    +0.149 HD
BRANCH  30  32
ATOM     32  CA  ALA A   5       7.007  -4.791  26.879  0.00  0.00    +0.156 C 
ATOM     33  CB  ALA A   5       5.569  -5.283  27.018  0.00  0.00    +0.038 C 
BRANCH  32  34
ATOM     34  C   ALA A   5       7.609  -5.279  25.546  0.00  0.00    +0.234 C 
ATOM     35  N   ASP A   6       6.801  -5.103  24.446  0.00  0.00    -0.304 N 
ATOM     36  H   ASP A   6       5.906  -4.621  24.534  0.00  0.00    +0.149 HD
ATOM     37  O   ALA A   5       8.730  -5.784  25.453  0.00  0.00    -0.274 OA
BRANCH  35  38
ATOM     38  CA  ASP A   6       7.274  -5.355  23.088  0.00  0.00    +0.142 C 
BRANCH  38  39
ATOM     39  C   ASP A   6       7.517  -4.006  22.424  0.00  0.00    +0.245 C 
ATOM     40  O   ASP A   6       7.262  -2.935  22.974  0.00  0.00    -0.299 OA
ENDBRANCH  38  39
BRANCH  38  41
ATOM     41  CB  ASP A   6       6.270  -6.155  22.272  0.00  0.00    +0.087 C 
BRANCH  41  42
ATOM     42  CG  ASP A   6       4.946  -6.053  22.969  0.00  0.00    +0.025 C 
ATOM     43  OD1 ASP A   6       4.174  -5.122  22.788  0.00  0.00    -0.851 OA
BRANCH  42  44
ATOM     44  OD2 ASP A   6       4.647  -7.126  23.726  0.00  0.00    -0.526 OA
ATOM     45  HD2 ASP A   6       4.224  -6.916  24.586  0.00  0.00    +0.290 HD
ENDBRANCH  42  44
ENDBRANCH  41  42
ENDBRANCH  38  41
ENDBRANCH  35  38
ENDBRANCH  32  34
ENDBRANCH  30  32
ENDBRANCH  27  28
BRANCH  27  46
ATOM     46  CB  SER A   4       5.000  -0.274  26.387  0.00  0.00    +0.187 C 
BRANCH  46  47
ATOM     47  OG  SER A   4       4.877   0.518  25.207  0.00  0.00    -0.393 OA
ATOM     48  H   SER A   4       4.705  -0.098  24.473  0.00  0.00    +0.209 HD
ENDBRANCH  46  47
ENDBRANCH  27  46
ENDBRANCH  24  27
ENDBRANCH   1  23
BRANCH   1  49
ATOM     49  CB  GLN A   3      10.543   0.594  24.426  0.00  0.00    +0.041 C 
BRANCH  49  50
ATOM     50  CG  GLN A   3      10.132   2.064  24.366  0.00  0.00    +0.098 C 
BRANCH  50  51
ATOM     51  CD  GLN A   3      10.606   2.784  23.120  0.00  0.00    +0.211 C 
ATOM     52  NE2 GLN A   3      11.252   3.968  23.300  0.00  0.00    -0.329 N 
ATOM     53 HE21 GLN A   3      11.533   4.460  22.460  0.00  0.00    +0.145 HD
ATOM     54 HE22 GLN A   3      11.240   4.489  24.164  0.00  0.00    +0.145 HD
ATOM     55  OE1 GLN A   3      10.497   2.301  21.999  0.00  0.00    -0.276 OA
ENDBRANCH  50  51
ENDBRANCH  49  50
ENDBRANCH   1  49
TORSDOF 25
ENDMDL
MODEL 12
REMARK VINA RESULT:      -5.8      1.807      2.559
REMARK  Name = MLQSAD-mmff94.pdb
REMARK  29 active torsions:
REMARK  status: ('A' for Active; 'I' for Inactive)
REMARK    1  A    between atoms: _1  and  _2
REMARK    2  A    between atoms: _2  and  _3
REMARK    3  A    between atoms: _2  and  _5
REMARK    4  A    between atoms: _5  and  _6
REMARK    5  A    between atoms: _6  and  _7
REMARK    6  A    between atoms: _7  and  _8
REMARK    7  A    between atoms: _18  and  _19
REMARK    8  A    between atoms: _19  and  _20
REMARK    9  A    between atoms: _19  and  _22
REMARK   10  A    between atoms: _22  and  _23
REMARK   11  A    between atoms: _23  and  _24
REMARK   12  A    between atoms: _23  and  _25
REMARK   13  A    between atoms: _37  and  _38
REMARK   14  A    between atoms: _38  and  _39
REMARK   15  A    between atoms: _38  and  _41
REMARK   16  A    between atoms: _41  and  _42
REMARK   17  A    between atoms: _42  and  _43
REMARK   18  A    between atoms: _54  and  _55
REMARK   19  A    between atoms: _55  and  _56
REMARK   20  A    between atoms: _55  and  _58
REMARK   21  A    between atoms: _58  and  _59
REMARK   22  A    between atoms: _65  and  _66
REMARK   23  A    between atoms: _66  and  _67
REMARK   24  A    between atoms: _66  and  _69
REMARK   25  A    between atoms: _75  and  _76
REMARK   26  A    between atoms: _76  and  _77
REMARK   27  A    between atoms: _76  and  _79
REMARK   28  A    between atoms: _79  and  _80
REMARK   29  A    between atoms: _80  and  _81
REMARK                            x       y       z     vdW  Elec       q    Type
REMARK                         _______ _______ _______ _____ _____    ______ ____
ROOT
ATOM      1  CA  GLN A   3       9.860   0.683  22.136  0.00  0.00    +0.159 C 
ENDROOT
BRANCH   1   3
ATOM      2  C   LEU A   2       9.648  -1.657  22.964  0.00  0.00    +0.234 C 
ATOM      3  N   GLN A   3       9.181  -0.366  22.897  0.00  0.00    -0.302 N 
ATOM      4  H   GLN A   3       8.295  -0.116  23.330  0.00  0.00    +0.150 HD
ATOM      5  O   LEU A   2      10.688  -2.016  22.413  0.00  0.00    -0.274 OA
BRANCH   2   6
ATOM      6  CA  LEU A   2       8.789  -2.618  23.814  0.00  0.00    +0.159 C 
BRANCH   6   8
ATOM      7  C   MET A   1       8.033  -2.117  26.131  0.00  0.00    +0.230 C 
ATOM      8  N   LEU A   2       8.081  -1.800  24.795  0.00  0.00    -0.303 N 
ATOM      9  H   LEU A   2       7.782  -0.881  24.481  0.00  0.00    +0.149 HD
ATOM     10  O   MET A   1       8.529  -3.141  26.596  0.00  0.00    -0.274 OA
BRANCH   7  11
ATOM     11  CA  MET A   1       7.296  -1.088  27.016  0.00  0.00    +0.138 C 
BRANCH  11  12
ATOM     12  N   MET A   1       7.883   0.247  26.783  0.00  0.00    -0.320 NA
ATOM     13  H1  MET A   1       7.241   0.949  27.159  0.00  0.00    +0.119 HD
ATOM     14  H2  MET A   1       8.704   0.324  27.394  0.00  0.00    +0.119 HD
ENDBRANCH  11  12
BRANCH  11  15
ATOM     15  CB  MET A   1       5.801  -1.119  26.675  0.00  0.00    +0.038 C 
BRANCH  15  16
ATOM     16  CG  MET A   1       4.948  -1.650  27.826  0.00  0.00    +0.071 C 
BRANCH  16  17
ATOM     17  SD  MET A   1       4.841  -3.468  27.731  0.00  0.00    -0.164 S 
ATOM     18  CE  MET A   1       3.756  -3.748  29.151  0.00  0.00    +0.084 C 
ENDBRANCH  16  17
ENDBRANCH  15  16
ENDBRANCH  11  15
ENDBRANCH   7  11
ENDBRANCH   6   8
BRANCH   6  19
ATOM     19  CB  LEU A   2       7.822  -3.383  22.894  0.00  0.00    +0.034 C 
BRANCH  19  20
ATOM     20  CG  LEU A   2       7.533  -4.843  23.299  0.00  0.00    -0.015 C 
ATOM     21  CD2 LEU A   2       7.325  -5.750  22.085  0.00  0.00    +0.007 C 
ATOM     22  CD1 LEU A   2       6.289  -4.894  24.191  0.00  0.00    +0.007 C 
ENDBRANCH  19  20
ENDBRANCH   6  19
ENDBRANCH   2   6
ENDBRANCH   1   3
BRANCH   1  23
ATOM     23  C   GLN A   3      10.506   1.619  23.180  0.00  0.00    +0.234 C 
ATOM     24  N   SER A   4      10.722   2.908  22.771  0.00  0.00    -0.301 N 
ATOM     25  H   SER A   4      10.427   3.229  21.850  0.00  0.00    +0.150 HD
ATOM     26  O   GLN A   3      10.785   1.236  24.317  0.00  0.00    -0.274 OA
BRANCH  24  27
ATOM     27  CA  SER A   4      11.181   3.958  23.689  0.00  0.00    +0.184 C 
BRANCH  27  28
ATOM     28  C   SER A   4       9.999   4.916  23.917  0.00  0.00    +0.236 C 
ATOM     29  O   SER A   4      10.050   5.805  24.768  0.00  0.00    -0.274 OA
ATOM     30  N   ALA A   5       8.914   4.746  23.087  0.00  0.00    -0.303 N 
ATOM     31  H   ALA A   5       8.888   4.002  22.396  0.00  0.00    +0.149 HD
BRANCH  30  32
ATOM     32  CA  ALA A   5       7.729   5.591  23.191  0.00  0.00    +0.156 C 
ATOM     33  CB  ALA A   5       7.092   5.819  21.824  0.00  0.00    +0.038 C 
BRANCH  32  34
ATOM     34  C   ALA A   5       6.718   4.922  24.145  0.00  0.00    +0.234 C 
ATOM     35  N   ASP A   6       6.099   3.802  23.639  0.00  0.00    -0.304 N 
ATOM     36  H   ASP A   6       6.364   3.433  22.726  0.00  0.00    +0.149 HD
ATOM     37  O   ALA A   5       6.477   5.342  25.279  0.00  0.00    -0.274 OA
BRANCH  35  38
ATOM     38  CA  ASP A   6       5.241   2.954  24.462  0.00  0.00    +0.142 C 
BRANCH  38  39
ATOM     39  C   ASP A   6       5.638   1.506  24.205  0.00  0.00    +0.245 C 
ATOM     40  O   ASP A   6       6.810   1.141  24.111  0.00  0.00    -0.299 OA
ENDBRANCH  38  39
BRANCH  38  41
ATOM     41  CB  ASP A   6       3.767   3.146  24.136  0.00  0.00    +0.087 C 
BRANCH  41  42
ATOM     42  CG  ASP A   6       3.687   3.743  22.764  0.00  0.00    +0.025 C 
ATOM     43  OD1 ASP A   6       3.723   4.949  22.564  0.00  0.00    -0.851 OA
BRANCH  42  44
ATOM     44  OD2 ASP A   6       3.677   2.830  21.774  0.00  0.00    -0.526 OA
ATOM     45  HD2 ASP A   6       3.089   2.060  21.932  0.00  0.00    +0.290 HD
ENDBRANCH  42  44
ENDBRANCH  41  42
ENDBRANCH  38  41
ENDBRANCH  35  38
ENDBRANCH  32  34
ENDBRANCH  30  32
ENDBRANCH  27  28
BRANCH  27  46
ATOM     46  CB  SER A   4      12.412   4.694  23.152  0.00  0.00    +0.187 C 
BRANCH  46  47
ATOM     47  OG  SER A   4      12.047   5.824  22.360  0.00  0.00    -0.393 OA
ATOM     48  H   SER A   4      11.420   5.504  21.688  0.00  0.00    +0.209 HD
ENDBRANCH  46  47
ENDBRANCH  27  46
ENDBRANCH  24  27
ENDBRANCH   1  23
BRANCH   1  49
ATOM     49  CB  GLN A   3       8.857   1.431  21.247  0.00  0.00    +0.041 C 
BRANCH  49  50
ATOM     50  CG  GLN A   3       7.833   0.521  20.572  0.00  0.00    +0.098 C 
BRANCH  50  51
ATOM     51  CD  GLN A   3       6.472   1.160  20.383  0.00  0.00    +0.211 C 
ATOM     52  NE2 GLN A   3       5.546   0.446  19.687  0.00  0.00    -0.329 N 
ATOM     53 HE21 GLN A   3       4.652   0.897  19.533  0.00  0.00    +0.145 HD
ATOM     54 HE22 GLN A   3       5.769  -0.356  19.117  0.00  0.00    +0.145 HD
ATOM     55  OE1 GLN A   3       6.172   2.232  20.896  0.00  0.00    -0.276 OA
ENDBRANCH  50  51
ENDBRANCH  49  50
ENDBRANCH   1  49
TORSDOF 25
ENDMDL
MODEL 13
REMARK VINA RESULT:      -5.8      2.558      5.223
REMARK  Name = MLQSAD-mmff94.pdb
REMARK  29 active torsions:
REMARK  status: ('A' for Active; 'I' for Inactive)
REMARK    1  A    between atoms: _1  and  _2
REMARK    2  A    between atoms: _2  and  _3
REMARK    3  A    between atoms: _2  and  _5
REMARK    4  A    between atoms: _5  and  _6
REMARK    5  A    between atoms: _6  and  _7
REMARK    6  A    between atoms: _7  and  _8
REMARK    7  A    between atoms: _18  and  _19
REMARK    8  A    between atoms: _19  and  _20
REMARK    9  A    between atoms: _19  and  _22
REMARK   10  A    between atoms: _22  and  _23
REMARK   11  A    between atoms: _23  and  _24
REMARK   12  A    between atoms: _23  and  _25
REMARK   13  A    between atoms: _37  and  _38
REMARK   14  A    between atoms: _38  and  _39
REMARK   15  A    between atoms: _38  and  _41
REMARK   16  A    between atoms: _41  and  _42
REMARK   17  A    between atoms: _42  and  _43
REMARK   18  A    between atoms: _54  and  _55
REMARK   19  A    between atoms: _55  and  _56
REMARK   20  A    between atoms: _55  and  _58
REMARK   21  A    between atoms: _58  and  _59
REMARK   22  A    between atoms: _65  and  _66
REMARK   23  A    between atoms: _66  and  _67
REMARK   24  A    between atoms: _66  and  _69
REMARK   25  A    between atoms: _75  and  _76
REMARK   26  A    between atoms: _76  and  _77
REMARK   27  A    between atoms: _76  and  _79
REMARK   28  A    between atoms: _79  and  _80
REMARK   29  A    between atoms: _80  and  _81
REMARK                            x       y       z     vdW  Elec       q    Type
REMARK                         _______ _______ _______ _____ _____    ______ ____
ROOT
ATOM      1  CA  GLN A   3       7.349  -2.273  21.903  0.00  0.00    +0.159 C 
ENDROOT
BRANCH   1   3
ATOM      2  C   LEU A   2       8.535  -2.722  24.048  0.00  0.00    +0.234 C 
ATOM      3  N   GLN A   3       7.584  -2.039  23.328  0.00  0.00    -0.302 N 
ATOM      4  H   GLN A   3       6.958  -1.385  23.793  0.00  0.00    +0.150 HD
ATOM      5  O   LEU A   2       9.279  -3.559  23.538  0.00  0.00    -0.274 OA
BRANCH   2   6
ATOM      6  CA  LEU A   2       8.627  -2.335  25.540  0.00  0.00    +0.159 C 
BRANCH   6   8
ATOM      7  C   MET A   1       7.941  -0.284  26.771  0.00  0.00    +0.230 C 
ATOM      8  N   LEU A   2       7.777  -1.162  25.727  0.00  0.00    -0.303 N 
ATOM      9  H   LEU A   2       7.176  -0.914  24.946  0.00  0.00    +0.149 HD
ATOM     10  O   MET A   1       8.774  -0.447  27.660  0.00  0.00    -0.274 OA
BRANCH   7  11
ATOM     11  CA  MET A   1       6.989   0.931  26.753  0.00  0.00    +0.138 C 
BRANCH  11  12
ATOM     12  N   MET A   1       6.489   1.124  25.377  0.00  0.00    -0.320 NA
ATOM     13  H1  MET A   1       7.281   1.370  24.780  0.00  0.00    +0.119 HD
ATOM     14  H2  MET A   1       6.206   0.201  25.028  0.00  0.00    +0.119 HD
ENDBRANCH  11  12
BRANCH  11  15
ATOM     15  CB  MET A   1       5.844   0.681  27.743  0.00  0.00    +0.038 C 
BRANCH  15  16
ATOM     16  CG  MET A   1       5.389   1.959  28.446  0.00  0.00    +0.071 C 
BRANCH  16  17
ATOM     17  SD  MET A   1       6.842   2.942  28.946  0.00  0.00    -0.164 S 
ATOM     18  CE  MET A   1       7.484   1.839  30.227  0.00  0.00    +0.084 C 
ENDBRANCH  16  17
ENDBRANCH  15  16
ENDBRANCH  11  15
ENDBRANCH   7  11
ENDBRANCH   6   8
BRANCH   6  19
ATOM     19  CB  LEU A   2       8.171  -3.524  26.402  0.00  0.00    +0.034 C 
BRANCH  19  20
ATOM     20  CG  LEU A   2       6.706  -3.964  26.207  0.00  0.00    -0.015 C 
ATOM     21  CD2 LEU A   2       5.872  -3.779  27.476  0.00  0.00    +0.007 C 
ATOM     22  CD1 LEU A   2       6.661  -5.434  25.779  0.00  0.00    +0.007 C 
ENDBRANCH  19  20
ENDBRANCH   6  19
ENDBRANCH   2   6
ENDBRANCH   1   3
BRANCH   1  23
ATOM     23  C   GLN A   3       7.573  -0.916  21.204  0.00  0.00    +0.234 C 
ATOM     24  N   SER A   4       6.440  -0.202  20.913  0.00  0.00    -0.301 N 
ATOM     25  H   SER A   4       5.518  -0.535  21.189  0.00  0.00    +0.150 HD
ATOM     26  O   GLN A   3       8.700  -0.491  20.947  0.00  0.00    -0.274 OA
BRANCH  24  27
ATOM     27  CA  SER A   4       6.487   1.170  20.394  0.00  0.00    +0.184 C 
BRANCH  27  28
ATOM     28  C   SER A   4       6.389   2.119  21.600  0.00  0.00    +0.236 C 
ATOM     29  O   SER A   4       5.978   1.725  22.693  0.00  0.00    -0.274 OA
ATOM     30  N   ALA A   5       6.826   3.407  21.394  0.00  0.00    -0.303 N 
ATOM     31  H   ALA A   5       7.154   3.715  20.483  0.00  0.00    +0.149 HD
BRANCH  30  32
ATOM     32  CA  ALA A   5       6.794   4.408  22.456  0.00  0.00    +0.156 C 
ATOM     33  CB  ALA A   5       5.417   4.474  23.110  0.00  0.00    +0.038 C 
BRANCH  32  34
ATOM     34  C   ALA A   5       7.866   4.058  23.508  0.00  0.00    +0.234 C 
ATOM     35  N   ASP A   6       9.114   3.787  22.995  0.00  0.00    -0.304 N 
ATOM     36  H   ASP A   6       9.295   3.885  21.996  0.00  0.00    +0.149 HD
ATOM     37  O   ALA A   5       7.641   4.027  24.720  0.00  0.00    -0.274 OA
BRANCH  35  38
ATOM     38  CA  ASP A   6      10.280   3.600  23.854  0.00  0.00    +0.142 C 
BRANCH  38  39
ATOM     39  C   ASP A   6      11.265   4.722  23.548  0.00  0.00    +0.245 C 
ATOM     40  O   ASP A   6      12.478   4.539  23.453  0.00  0.00    -0.299 OA
ENDBRANCH  38  39
BRANCH  38  41
ATOM     41  CB  ASP A   6      10.949   2.253  23.623  0.00  0.00    +0.087 C 
BRANCH  41  42
ATOM     42  CG  ASP A   6      10.084   1.209  24.263  0.00  0.00    +0.025 C 
ATOM     43  OD1 ASP A   6       9.021   0.846  23.780  0.00  0.00    -0.851 OA
BRANCH  42  44
ATOM     44  OD2 ASP A   6      10.635   0.641  25.353  0.00  0.00    -0.526 OA
ATOM     45  HD2 ASP A   6      11.513   0.229  25.201  0.00  0.00    +0.290 HD
ENDBRANCH  42  44
ENDBRANCH  41  42
ENDBRANCH  38  41
ENDBRANCH  35  38
ENDBRANCH  32  34
ENDBRANCH  30  32
ENDBRANCH  27  28
BRANCH  27  46
ATOM     46  CB  SER A   4       5.379   1.436  19.370  0.00  0.00    +0.187 C 
BRANCH  46  47
ATOM     47  OG  SER A   4       4.308   2.191  19.936  0.00  0.00    -0.393 OA
ATOM     48  H   SER A   4       3.482   1.782  19.623  0.00  0.00    +0.209 HD
ENDBRANCH  46  47
ENDBRANCH  27  46
ENDBRANCH  24  27
ENDBRANCH   1  23
BRANCH   1  49
ATOM     49  CB  GLN A   3       5.925  -2.801  21.677  0.00  0.00    +0.041 C 
BRANCH  49  50
ATOM     50  CG  GLN A   3       5.624  -4.102  22.419  0.00  0.00    +0.098 C 
BRANCH  50  51
ATOM     51  CD  GLN A   3       5.930  -5.351  21.618  0.00  0.00    +0.211 C 
ATOM     52  NE2 GLN A   3       6.078  -6.510  22.315  0.00  0.00    -0.329 N 
ATOM     53 HE21 GLN A   3       6.319  -7.333  21.774  0.00  0.00    +0.145 HD
ATOM     54 HE22 GLN A   3       6.216  -6.551  23.313  0.00  0.00    +0.145 HD
ATOM     55  OE1 GLN A   3       5.962  -5.356  20.393  0.00  0.00    -0.276 OA
ENDBRANCH  50  51
ENDBRANCH  49  50
ENDBRANCH   1  49
TORSDOF 25
ENDMDL
MODEL 14
REMARK VINA RESULT:      -5.7      2.687      7.771
REMARK  Name = MLQSAD-mmff94.pdb
REMARK  29 active torsions:
REMARK  status: ('A' for Active; 'I' for Inactive)
REMARK    1  A    between atoms: _1  and  _2
REMARK    2  A    between atoms: _2  and  _3
REMARK    3  A    between atoms: _2  and  _5
REMARK    4  A    between atoms: _5  and  _6
REMARK    5  A    between atoms: _6  and  _7
REMARK    6  A    between atoms: _7  and  _8
REMARK    7  A    between atoms: _18  and  _19
REMARK    8  A    between atoms: _19  and  _20
REMARK    9  A    between atoms: _19  and  _22
REMARK   10  A    between atoms: _22  and  _23
REMARK   11  A    between atoms: _23  and  _24
REMARK   12  A    between atoms: _23  and  _25
REMARK   13  A    between atoms: _37  and  _38
REMARK   14  A    between atoms: _38  and  _39
REMARK   15  A    between atoms: _38  and  _41
REMARK   16  A    between atoms: _41  and  _42
REMARK   17  A    between atoms: _42  and  _43
REMARK   18  A    between atoms: _54  and  _55
REMARK   19  A    between atoms: _55  and  _56
REMARK   20  A    between atoms: _55  and  _58
REMARK   21  A    between atoms: _58  and  _59
REMARK   22  A    between atoms: _65  and  _66
REMARK   23  A    between atoms: _66  and  _67
REMARK   24  A    between atoms: _66  and  _69
REMARK   25  A    between atoms: _75  and  _76
REMARK   26  A    between atoms: _76  and  _77
REMARK   27  A    between atoms: _76  and  _79
REMARK   28  A    between atoms: _79  and  _80
REMARK   29  A    between atoms: _80  and  _81
REMARK                            x       y       z     vdW  Elec       q    Type
REMARK                         _______ _______ _______ _____ _____    ______ ____
ROOT
ATOM      1  CA  GLN A   3       7.818  -0.996  21.784  0.00  0.00    +0.159 C 
ENDROOT
BRANCH   1   3
ATOM      2  C   LEU A   2       6.935   1.215  22.520  0.00  0.00    +0.234 C 
ATOM      3  N   GLN A   3       7.090  -0.136  22.718  0.00  0.00    -0.302 N 
ATOM      4  H   GLN A   3       6.751  -0.574  23.572  0.00  0.00    +0.150 HD
ATOM      5  O   LEU A   2       7.372   1.794  21.526  0.00  0.00    -0.274 OA
BRANCH   2   6
ATOM      6  CA  LEU A   2       6.138   1.948  23.621  0.00  0.00    +0.159 C 
BRANCH   6   8
ATOM      7  C   MET A   1       5.090   1.017  25.676  0.00  0.00    +0.230 C 
ATOM      8  N   LEU A   2       6.143   1.083  24.797  0.00  0.00    -0.303 N 
ATOM      9  H   LEU A   2       6.883   0.388  24.839  0.00  0.00    +0.149 HD
ATOM     10  O   MET A   1       4.088   1.721  25.576  0.00  0.00    -0.274 OA
BRANCH   7  11
ATOM     11  CA  MET A   1       5.260  -0.010  26.816  0.00  0.00    +0.138 C 
BRANCH  11  12
ATOM     12  N   MET A   1       6.374  -0.919  26.477  0.00  0.00    -0.320 NA
ATOM     13  H1  MET A   1       6.123  -1.861  26.783  0.00  0.00    +0.119 HD
ATOM     14  H2  MET A   1       6.395  -0.998  25.454  0.00  0.00    +0.119 HD
ENDBRANCH  11  12
BRANCH  11  15
ATOM     15  CB  MET A   1       5.519   0.741  28.128  0.00  0.00    +0.038 C 
BRANCH  15  16
ATOM     16  CG  MET A   1       7.001   1.040  28.349  0.00  0.00    +0.071 C 
BRANCH  16  17
ATOM     17  SD  MET A   1       7.207   2.092  29.825  0.00  0.00    -0.164 S 
ATOM     18  CE  MET A   1       6.094   3.438  29.352  0.00  0.00    +0.084 C 
ENDBRANCH  16  17
ENDBRANCH  15  16
ENDBRANCH  11  15
ENDBRANCH   7  11
ENDBRANCH   6   8
BRANCH   6  19
ATOM     19  CB  LEU A   2       6.795   3.310  23.901  0.00  0.00    +0.034 C 
BRANCH  19  20
ATOM     20  CG  LEU A   2       7.986   3.285  24.880  0.00  0.00    -0.015 C 
ATOM     21  CD2 LEU A   2       7.763   4.200  26.085  0.00  0.00    +0.007 C 
ATOM     22  CD1 LEU A   2       9.264   3.711  24.150  0.00  0.00    +0.007 C 
ENDBRANCH  19  20
ENDBRANCH   6  19
ENDBRANCH   2   6
ENDBRANCH   1   3
BRANCH   1  23
ATOM     23  C   GLN A   3       6.800  -2.041  21.281  0.00  0.00    +0.234 C 
ATOM     24  N   SER A   4       6.899  -3.287  21.842  0.00  0.00    -0.301 N 
ATOM     25  H   SER A   4       7.575  -3.485  22.579  0.00  0.00    +0.150 HD
ATOM     26  O   GLN A   3       5.937  -1.764  20.447  0.00  0.00    -0.274 OA
BRANCH  24  27
ATOM     27  CA  SER A   4       5.912  -4.344  21.591  0.00  0.00    +0.184 C 
BRANCH  27  28
ATOM     28  C   SER A   4       5.100  -4.529  22.884  0.00  0.00    +0.236 C 
ATOM     29  O   SER A   4       4.702  -3.562  23.534  0.00  0.00    -0.274 OA
ATOM     30  N   ALA A   5       4.811  -5.828  23.236  0.00  0.00    -0.303 N 
ATOM     31  H   ALA A   5       5.155  -6.612  22.691  0.00  0.00    +0.149 HD
BRANCH  30  32
ATOM     32  CA  ALA A   5       4.043  -6.144  24.436  0.00  0.00    +0.156 C 
ATOM     33  CB  ALA A   5       3.183  -7.387  24.228  0.00  0.00    +0.038 C 
BRANCH  32  34
ATOM     34  C   ALA A   5       5.016  -6.362  25.612  0.00  0.00    +0.234 C 
ATOM     35  N   ASP A   6       6.059  -5.466  25.675  0.00  0.00    -0.304 N 
ATOM     36  H   ASP A   6       6.114  -4.690  25.015  0.00  0.00    +0.149 HD
ATOM     37  O   ALA A   5       4.880  -7.260  26.446  0.00  0.00    -0.274 OA
BRANCH  35  38
ATOM     38  CA  ASP A   6       6.976  -5.424  26.810  0.00  0.00    +0.142 C 
BRANCH  38  39
ATOM     39  C   ASP A   6       6.287  -4.661  27.934  0.00  0.00    +0.245 C 
ATOM     40  O   ASP A   6       5.717  -3.584  27.760  0.00  0.00    -0.299 OA
ENDBRANCH  38  39
BRANCH  38  41
ATOM     41  CB  ASP A   6       8.290  -4.742  26.458  0.00  0.00    +0.087 C 
BRANCH  41  42
ATOM     42  CG  ASP A   6       8.149  -4.190  25.072  0.00  0.00    +0.025 C 
ATOM     43  OD1 ASP A   6       8.614  -4.746  24.088  0.00  0.00    -0.851 OA
BRANCH  42  44
ATOM     44  OD2 ASP A   6       7.378  -3.087  25.002  0.00  0.00    -0.526 OA
ATOM     45  HD2 ASP A   6       7.212  -2.759  24.092  0.00  0.00    +0.290 HD
ENDBRANCH  42  44
ENDBRANCH  41  42
ENDBRANCH  38  41
ENDBRANCH  35  38
ENDBRANCH  32  34
ENDBRANCH  30  32
ENDBRANCH  27  28
BRANCH  27  46
ATOM     46  CB  SER A   4       6.572  -5.652  21.142  0.00  0.00    +0.187 C 
BRANCH  46  47
ATOM     47  OG  SER A   4       7.379  -6.216  22.175  0.00  0.00    -0.393 OA
ATOM     48  H   SER A   4       7.572  -5.498  22.804  0.00  0.00    +0.209 HD
ENDBRANCH  46  47
ENDBRANCH  27  46
ENDBRANCH  24  27
ENDBRANCH   1  23
BRANCH   1  49
ATOM     49  CB  GLN A   3       9.011  -1.658  22.488  0.00  0.00    +0.041 C 
BRANCH  49  50
ATOM     50  CG  GLN A   3      10.037  -0.664  23.029  0.00  0.00    +0.098 C 
BRANCH  50  51
ATOM     51  CD  GLN A   3       9.828  -0.296  24.484  0.00  0.00    +0.211 C 
ATOM     52  NE2 GLN A   3      10.773   0.495  25.062  0.00  0.00    -0.329 N 
ATOM     53 HE21 GLN A   3      10.644   0.705  26.045  0.00  0.00    +0.145 HD
ATOM     54 HE22 GLN A   3      11.684   0.662  24.664  0.00  0.00    +0.145 HD
ATOM     55  OE1 GLN A   3       8.822  -0.615  25.106  0.00  0.00    -0.276 OA
ENDBRANCH  50  51
ENDBRANCH  49  50
ENDBRANCH   1  49
TORSDOF 25
ENDMDL
MODEL 15
REMARK VINA RESULT:      -5.7      2.823      7.212
REMARK  Name = MLQSAD-mmff94.pdb
REMARK  29 active torsions:
REMARK  status: ('A' for Active; 'I' for Inactive)
REMARK    1  A    between atoms: _1  and  _2
REMARK    2  A    between atoms: _2  and  _3
REMARK    3  A    between atoms: _2  and  _5
REMARK    4  A    between atoms: _5  and  _6
REMARK    5  A    between atoms: _6  and  _7
REMARK    6  A    between atoms: _7  and  _8
REMARK    7  A    between atoms: _18  and  _19
REMARK    8  A    between atoms: _19  and  _20
REMARK    9  A    between atoms: _19  and  _22
REMARK   10  A    between atoms: _22  and  _23
REMARK   11  A    between atoms: _23  and  _24
REMARK   12  A    between atoms: _23  and  _25
REMARK   13  A    between atoms: _37  and  _38
REMARK   14  A    between atoms: _38  and  _39
REMARK   15  A    between atoms: _38  and  _41
REMARK   16  A    between atoms: _41  and  _42
REMARK   17  A    between atoms: _42  and  _43
REMARK   18  A    between atoms: _54  and  _55
REMARK   19  A    between atoms: _55  and  _56
REMARK   20  A    between atoms: _55  and  _58
REMARK   21  A    between atoms: _58  and  _59
REMARK   22  A    between atoms: _65  and  _66
REMARK   23  A    between atoms: _66  and  _67
REMARK   24  A    between atoms: _66  and  _69
REMARK   25  A    between atoms: _75  and  _76
REMARK   26  A    between atoms: _76  and  _77
REMARK   27  A    between atoms: _76  and  _79
REMARK   28  A    between atoms: _79  and  _80
REMARK   29  A    between atoms: _80  and  _81
REMARK                            x       y       z     vdW  Elec       q    Type
REMARK                         _______ _______ _______ _____ _____    ______ ____
ROOT
ATOM      1  CA  GLN A   3       9.427  -0.123  24.142  0.00  0.00    +0.159 C 
ENDROOT
BRANCH   1   3
ATOM      2  C   LEU A   2       7.094   0.062  24.995  0.00  0.00    +0.234 C 
ATOM      3  N   GLN A   3       8.439  -0.103  25.220  0.00  0.00    -0.302 N 
ATOM      4  H   GLN A   3       8.799  -0.151  26.171  0.00  0.00    +0.150 HD
ATOM      5  O   LEU A   2       6.619   0.175  23.865  0.00  0.00    -0.274 OA
BRANCH   2   6
ATOM      6  CA  LEU A   2       6.214   0.059  26.263  0.00  0.00    +0.159 C 
BRANCH   6   8
ATOM      7  C   MET A   1       6.448   2.083  27.690  0.00  0.00    +0.230 C 
ATOM      8  N   LEU A   2       5.928   1.454  26.586  0.00  0.00    -0.303 N 
ATOM      9  H   LEU A   2       5.478   1.999  25.856  0.00  0.00    +0.149 HD
ATOM     10  O   MET A   1       7.145   1.509  28.524  0.00  0.00    -0.274 OA
BRANCH   7  11
ATOM     11  CA  MET A   1       6.084   3.579  27.817  0.00  0.00    +0.138 C 
BRANCH  11  12
ATOM     12  N   MET A   1       7.308   4.341  28.137  0.00  0.00    -0.320 NA
ATOM     13  H1  MET A   1       8.030   4.088  27.458  0.00  0.00    +0.119 HD
ATOM     14  H2  MET A   1       7.113   5.325  27.922  0.00  0.00    +0.119 HD
ENDBRANCH  11  12
BRANCH  11  15
ATOM     15  CB  MET A   1       5.449   4.049  26.503  0.00  0.00    +0.038 C 
BRANCH  15  16
ATOM     16  CG  MET A   1       6.289   5.110  25.793  0.00  0.00    +0.071 C 
BRANCH  16  17
ATOM     17  SD  MET A   1       5.523   5.538  24.194  0.00  0.00    -0.164 S 
ATOM     18  CE  MET A   1       5.514   3.889  23.451  0.00  0.00    +0.084 C 
ENDBRANCH  16  17
ENDBRANCH  15  16
ENDBRANCH  11  15
ENDBRANCH   7  11
ENDBRANCH   6   8
BRANCH   6  19
ATOM     19  CB  LEU A   2       4.932  -0.747  25.990  0.00  0.00    +0.034 C 
BRANCH  19  20
ATOM     20  CG  LEU A   2       4.745  -2.012  26.851  0.00  0.00    -0.015 C 
ATOM     21  CD2 LEU A   2       4.263  -1.683  28.265  0.00  0.00    +0.007 C 
ATOM     22  CD1 LEU A   2       6.067  -2.782  26.932  0.00  0.00    +0.007 C 
ENDBRANCH  19  20
ENDBRANCH   6  19
ENDBRANCH   2   6
ENDBRANCH   1   3
BRANCH   1  23
ATOM     23  C   GLN A   3       9.775  -1.608  23.907  0.00  0.00    +0.234 C 
ATOM     24  N   SER A   4       9.243  -2.494  24.806  0.00  0.00    -0.301 N 
ATOM     25  H   SER A   4       8.619  -2.184  25.550  0.00  0.00    +0.150 HD
ATOM     26  O   GLN A   3      10.468  -1.975  22.956  0.00  0.00    -0.274 OA
BRANCH  24  27
ATOM     27  CA  SER A   4       9.348  -3.948  24.634  0.00  0.00    +0.184 C 
BRANCH  27  28
ATOM     28  C   SER A   4       8.189  -4.386  23.722  0.00  0.00    +0.236 C 
ATOM     29  O   SER A   4       8.136  -5.525  23.256  0.00  0.00    -0.274 OA
ATOM     30  N   ALA A   5       7.206  -3.449  23.501  0.00  0.00    -0.303 N 
ATOM     31  H   ALA A   5       7.272  -2.512  23.887  0.00  0.00    +0.149 HD
BRANCH  30  32
ATOM     32  CA  ALA A   5       6.048  -3.736  22.660  0.00  0.00    +0.156 C 
ATOM     33  CB  ALA A   5       4.745  -3.453  23.400  0.00  0.00    +0.038 C 
BRANCH  32  34
ATOM     34  C   ALA A   5       6.131  -2.877  21.382  0.00  0.00    +0.234 C 
ATOM     35  N   ASP A   6       6.897  -1.740  21.497  0.00  0.00    -0.304 N 
ATOM     36  H   ASP A   6       7.411  -1.548  22.356  0.00  0.00    +0.149 HD
ATOM     37  O   ALA A   5       5.565  -3.176  20.328  0.00  0.00    -0.274 OA
BRANCH  35  38
ATOM     38  CA  ASP A   6       7.216  -0.902  20.344  0.00  0.00    +0.142 C 
BRANCH  38  39
ATOM     39  C   ASP A   6       8.404  -0.027  20.723  0.00  0.00    +0.245 C 
ATOM     40  O   ASP A   6       8.293   1.166  21.005  0.00  0.00    -0.299 OA
ENDBRANCH  38  39
BRANCH  38  41
ATOM     41  CB  ASP A   6       6.043  -0.024  19.933  0.00  0.00    +0.087 C 
BRANCH  41  42
ATOM     42  CG  ASP A   6       5.932  -0.099  18.440  0.00  0.00    +0.025 C 
ATOM     43  OD1 ASP A   6       6.143   0.861  17.713  0.00  0.00    -0.851 OA
BRANCH  42  44
ATOM     44  OD2 ASP A   6       5.682  -1.338  17.975  0.00  0.00    -0.526 OA
ATOM     45  HD2 ASP A   6       5.107  -1.369  17.179  0.00  0.00    +0.290 HD
ENDBRANCH  42  44
ENDBRANCH  41  42
ENDBRANCH  38  41
ENDBRANCH  35  38
ENDBRANCH  32  34
ENDBRANCH  30  32
ENDBRANCH  27  28
BRANCH  27  46
ATOM     46  CB  SER A   4       9.325  -4.689  25.975  0.00  0.00    +0.187 C 
BRANCH  46  47
ATOM     47  OG  SER A   4       9.359  -6.104  25.796  0.00  0.00    -0.393 OA
ATOM     48  H   SER A   4      10.297  -6.367  25.822  0.00  0.00    +0.209 HD
ENDBRANCH  46  47
ENDBRANCH  27  46
ENDBRANCH  24  27
ENDBRANCH   1  23
BRANCH   1  49
ATOM     49  CB  GLN A   3      10.665   0.695  24.537  0.00  0.00    +0.041 C 
BRANCH  49  50
ATOM     50  CG  GLN A   3      10.780   2.032  23.808  0.00  0.00    +0.098 C 
BRANCH  50  51
ATOM     51  CD  GLN A   3       9.531   2.885  23.888  0.00  0.00    +0.211 C 
ATOM     52  NE2 GLN A   3       9.088   3.441  22.728  0.00  0.00    -0.329 N 
ATOM     53 HE21 GLN A   3       8.274   4.041  22.798  0.00  0.00    +0.145 HD
ATOM     54 HE22 GLN A   3       9.643   3.505  21.888  0.00  0.00    +0.145 HD
ATOM     55  OE1 GLN A   3       8.886   3.013  24.923  0.00  0.00    -0.276 OA
ENDBRANCH  50  51
ENDBRANCH  49  50
ENDBRANCH   1  49
TORSDOF 25
ENDMDL
MODEL 16
REMARK VINA RESULT:      -5.7      2.747      7.302
REMARK  Name = MLQSAD-mmff94.pdb
REMARK  29 active torsions:
REMARK  status: ('A' for Active; 'I' for Inactive)
REMARK    1  A    between atoms: _1  and  _2
REMARK    2  A    between atoms: _2  and  _3
REMARK    3  A    between atoms: _2  and  _5
REMARK    4  A    between atoms: _5  and  _6
REMARK    5  A    between atoms: _6  and  _7
REMARK    6  A    between atoms: _7  and  _8
REMARK    7  A    between atoms: _18  and  _19
REMARK    8  A    between atoms: _19  and  _20
REMARK    9  A    between atoms: _19  and  _22
REMARK   10  A    between atoms: _22  and  _23
REMARK   11  A    between atoms: _23  and  _24
REMARK   12  A    between atoms: _23  and  _25
REMARK   13  A    between atoms: _37  and  _38
REMARK   14  A    between atoms: _38  and  _39
REMARK   15  A    between atoms: _38  and  _41
REMARK   16  A    between atoms: _41  and  _42
REMARK   17  A    between atoms: _42  and  _43
REMARK   18  A    between atoms: _54  and  _55
REMARK   19  A    between atoms: _55  and  _56
REMARK   20  A    between atoms: _55  and  _58
REMARK   21  A    between atoms: _58  and  _59
REMARK   22  A    between atoms: _65  and  _66
REMARK   23  A    between atoms: _66  and  _67
REMARK   24  A    between atoms: _66  and  _69
REMARK   25  A    between atoms: _75  and  _76
REMARK   26  A    between atoms: _76  and  _77
REMARK   27  A    between atoms: _76  and  _79
REMARK   28  A    between atoms: _79  and  _80
REMARK   29  A    between atoms: _80  and  _81
REMARK                            x       y       z     vdW  Elec       q    Type
REMARK                         _______ _______ _______ _____ _____    ______ ____
ROOT
ATOM      1  CA  GLN A   3       9.209  -0.443  24.198  0.00  0.00    +0.159 C 
ENDROOT
BRANCH   1   3
ATOM      2  C   LEU A   2       8.307  -0.184  21.890  0.00  0.00    +0.234 C 
ATOM      3  N   GLN A   3       8.326   0.184  23.213  0.00  0.00    -0.302 N 
ATOM      4  H   GLN A   3       7.762   0.966  23.538  0.00  0.00    +0.150 HD
ATOM      5  O   LEU A   2       9.010  -1.090  21.442  0.00  0.00    -0.274 OA
BRANCH   2   6
ATOM      6  CA  LEU A   2       7.309   0.599  21.009  0.00  0.00    +0.159 C 
BRANCH   6   8
ATOM      7  C   MET A   1       6.799   2.683  22.269  0.00  0.00    +0.230 C 
ATOM      8  N   LEU A   2       7.507   2.016  21.299  0.00  0.00    -0.303 N 
ATOM      9  H   LEU A   2       8.327   2.449  20.882  0.00  0.00    +0.149 HD
ATOM     10  O   MET A   1       5.903   2.157  22.926  0.00  0.00    -0.274 OA
BRANCH   7  11
ATOM     11  CA  MET A   1       7.206   4.159  22.471  0.00  0.00    +0.138 C 
BRANCH  11  12
ATOM     12  N   MET A   1       6.095   5.024  22.022  0.00  0.00    -0.320 NA
ATOM     13  H1  MET A   1       6.443   5.630  21.275  0.00  0.00    +0.119 HD
ATOM     14  H2  MET A   1       5.419   4.419  21.542  0.00  0.00    +0.119 HD
ENDBRANCH  11  12
BRANCH  11  15
ATOM     15  CB  MET A   1       7.540   4.385  23.950  0.00  0.00    +0.038 C 
BRANCH  15  16
ATOM     16  CG  MET A   1       6.661   5.457  24.592  0.00  0.00    +0.071 C 
BRANCH  16  17
ATOM     17  SD  MET A   1       6.582   5.195  26.395  0.00  0.00    -0.164 S 
ATOM     18  CE  MET A   1       7.354   3.560  26.462  0.00  0.00    +0.084 C 
ENDBRANCH  16  17
ENDBRANCH  15  16
ENDBRANCH  11  15
ENDBRANCH   7  11
ENDBRANCH   6   8
BRANCH   6  19
ATOM     19  CB  LEU A   2       7.571   0.269  19.529  0.00  0.00    +0.034 C 
BRANCH  19  20
ATOM     20  CG  LEU A   2       6.350  -0.235  18.735  0.00  0.00    -0.015 C 
ATOM     21  CD2 LEU A   2       5.282   0.848  18.566  0.00  0.00    +0.007 C 
ATOM     22  CD1 LEU A   2       5.736  -1.446  19.443  0.00  0.00    +0.007 C 
ENDBRANCH  19  20
ENDBRANCH   6  19
ENDBRANCH   2   6
ENDBRANCH   1   3
BRANCH   1  23
ATOM     23  C   GLN A   3       8.390  -0.548  25.502  0.00  0.00    +0.234 C 
ATOM     24  N   SER A   4       7.034  -0.398  25.367  0.00  0.00    -0.301 N 
ATOM     25  H   SER A   4       6.603  -0.274  24.453  0.00  0.00    +0.150 HD
ATOM     26  O   GLN A   3       8.920  -0.777  26.590  0.00  0.00    -0.274 OA
BRANCH  24  27
ATOM     27  CA  SER A   4       6.104  -0.625  26.480  0.00  0.00    +0.184 C 
BRANCH  27  28
ATOM     28  C   SER A   4       5.326  -1.915  26.170  0.00  0.00    +0.236 C 
ATOM     29  O   SER A   4       4.591  -1.997  25.184  0.00  0.00    -0.274 OA
ATOM     30  N   ALA A   5       5.537  -2.970  27.027  0.00  0.00    -0.303 N 
ATOM     31  H   ALA A   5       6.140  -2.880  27.839  0.00  0.00    +0.149 HD
BRANCH  30  32
ATOM     32  CA  ALA A   5       4.866  -4.253  26.844  0.00  0.00    +0.156 C 
ATOM     33  CB  ALA A   5       3.490  -4.071  26.211  0.00  0.00    +0.038 C 
BRANCH  32  34
ATOM     34  C   ALA A   5       5.744  -5.156  25.955  0.00  0.00    +0.234 C 
ATOM     35  N   ASP A   6       6.327  -4.522  24.882  0.00  0.00    -0.304 N 
ATOM     36  H   ASP A   6       6.219  -3.516  24.754  0.00  0.00    +0.149 HD
ATOM     37  O   ALA A   5       5.927  -6.355  26.178  0.00  0.00    -0.274 OA
BRANCH  35  38
ATOM     38  CA  ASP A   6       7.317  -5.184  24.035  0.00  0.00    +0.142 C 
BRANCH  38  39
ATOM     39  C   ASP A   6       8.698  -4.806  24.554  0.00  0.00    +0.245 C 
ATOM     40  O   ASP A   6       9.338  -3.851  24.117  0.00  0.00    -0.299 OA
ENDBRANCH  38  39
BRANCH  38  41
ATOM     41  CB  ASP A   6       7.187  -4.771  22.576  0.00  0.00    +0.087 C 
BRANCH  41  42
ATOM     42  CG  ASP A   6       6.179  -3.663  22.513  0.00  0.00    +0.025 C 
ATOM     43  OD1 ASP A   6       5.020  -3.843  22.168  0.00  0.00    -0.851 OA
BRANCH  42  44
ATOM     44  OD2 ASP A   6       6.641  -2.483  22.969  0.00  0.00    -0.526 OA
ATOM     45  HD2 ASP A   6       6.088  -1.707  22.731  0.00  0.00    +0.290 HD
ENDBRANCH  42  44
ENDBRANCH  41  42
ENDBRANCH  38  41
ENDBRANCH  35  38
ENDBRANCH  32  34
ENDBRANCH  30  32
ENDBRANCH  27  28
BRANCH  27  46
ATOM     46  CB  SER A   4       5.166   0.566  26.697  0.00  0.00    +0.187 C 
BRANCH  46  47
ATOM     47  OG  SER A   4       4.603   1.024  25.468  0.00  0.00    -0.393 OA
ATOM     48  H   SER A   4       3.764   0.544  25.349  0.00  0.00    +0.209 HD
ENDBRANCH  46  47
ENDBRANCH  27  46
ENDBRANCH  24  27
ENDBRANCH   1  23
BRANCH   1  49
ATOM     49  CB  GLN A   3      10.477   0.400  24.389  0.00  0.00    +0.041 C 
BRANCH  49  50
ATOM     50  CG  GLN A   3      10.222   1.906  24.402  0.00  0.00    +0.098 C 
BRANCH  50  51
ATOM     51  CD  GLN A   3      10.603   2.605  23.113  0.00  0.00    +0.211 C 
ATOM     52  NE2 GLN A   3      11.204   3.820  23.225  0.00  0.00    -0.329 N 
ATOM     53 HE21 GLN A   3      11.422   4.297  22.357  0.00  0.00    +0.145 HD
ATOM     54 HE22 GLN A   3      11.209   4.368  24.072  0.00  0.00    +0.145 HD
ATOM     55  OE1 GLN A   3      10.463   2.081  22.014  0.00  0.00    -0.276 OA
ENDBRANCH  50  51
ENDBRANCH  49  50
ENDBRANCH   1  49
TORSDOF 25
ENDMDL
MODEL 17
REMARK VINA RESULT:      -5.7      1.935      3.036
REMARK  Name = MLQSAD-mmff94.pdb
REMARK  29 active torsions:
REMARK  status: ('A' for Active; 'I' for Inactive)
REMARK    1  A    between atoms: _1  and  _2
REMARK    2  A    between atoms: _2  and  _3
REMARK    3  A    between atoms: _2  and  _5
REMARK    4  A    between atoms: _5  and  _6
REMARK    5  A    between atoms: _6  and  _7
REMARK    6  A    between atoms: _7  and  _8
REMARK    7  A    between atoms: _18  and  _19
REMARK    8  A    between atoms: _19  and  _20
REMARK    9  A    between atoms: _19  and  _22
REMARK   10  A    between atoms: _22  and  _23
REMARK   11  A    between atoms: _23  and  _24
REMARK   12  A    between atoms: _23  and  _25
REMARK   13  A    between atoms: _37  and  _38
REMARK   14  A    between atoms: _38  and  _39
REMARK   15  A    between atoms: _38  and  _41
REMARK   16  A    between atoms: _41  and  _42
REMARK   17  A    between atoms: _42  and  _43
REMARK   18  A    between atoms: _54  and  _55
REMARK   19  A    between atoms: _55  and  _56
REMARK   20  A    between atoms: _55  and  _58
REMARK   21  A    between atoms: _58  and  _59
REMARK   22  A    between atoms: _65  and  _66
REMARK   23  A    between atoms: _66  and  _67
REMARK   24  A    between atoms: _66  and  _69
REMARK   25  A    between atoms: _75  and  _76
REMARK   26  A    between atoms: _76  and  _77
REMARK   27  A    between atoms: _76  and  _79
REMARK   28  A    between atoms: _79  and  _80
REMARK   29  A    between atoms: _80  and  _81
REMARK                            x       y       z     vdW  Elec       q    Type
REMARK                         _______ _______ _______ _____ _____    ______ ____
ROOT
ATOM      1  CA  GLN A   3       9.327   0.251  22.069  0.00  0.00    +0.159 C 
ENDROOT
BRANCH   1   3
ATOM      2  C   LEU A   2       9.233  -2.004  23.126  0.00  0.00    +0.234 C 
ATOM      3  N   GLN A   3       8.678  -0.768  22.895  0.00  0.00    -0.302 N 
ATOM      4  H   GLN A   3       7.748  -0.547  23.245  0.00  0.00    +0.150 HD
ATOM      5  O   LEU A   2      10.331  -2.332  22.679  0.00  0.00    -0.274 OA
BRANCH   2   6
ATOM      6  CA  LEU A   2       8.391  -2.939  24.020  0.00  0.00    +0.159 C 
BRANCH   6   8
ATOM      7  C   MET A   1       6.160  -3.885  23.460  0.00  0.00    +0.230 C 
ATOM      8  N   LEU A   2       7.476  -3.660  23.140  0.00  0.00    -0.303 N 
ATOM      9  H   LEU A   2       7.803  -3.825  22.192  0.00  0.00    +0.149 HD
ATOM     10  O   MET A   1       5.664  -3.553  24.534  0.00  0.00    -0.274 OA
BRANCH   7  11
ATOM     11  CA  MET A   1       5.339  -4.602  22.365  0.00  0.00    +0.138 C 
BRANCH  11  12
ATOM     12  N   MET A   1       5.955  -4.326  21.051  0.00  0.00    -0.320 NA
ATOM     13  H1  MET A   1       6.826  -3.814  21.207  0.00  0.00    +0.119 HD
ATOM     14  H2  MET A   1       6.272  -5.226  20.674  0.00  0.00    +0.119 HD
ENDBRANCH  11  12
BRANCH  11  15
ATOM     15  CB  MET A   1       5.306  -6.105  22.673  0.00  0.00    +0.038 C 
BRANCH  15  16
ATOM     16  CG  MET A   1       4.283  -6.459  23.751  0.00  0.00    +0.071 C 
BRANCH  16  17
ATOM     17  SD  MET A   1       2.730  -5.548  23.455  0.00  0.00    -0.164 S 
ATOM     18  CE  MET A   1       1.773  -6.887  22.705  0.00  0.00    +0.084 C 
ENDBRANCH  16  17
ENDBRANCH  15  16
ENDBRANCH  11  15
ENDBRANCH   7  11
ENDBRANCH   6   8
BRANCH   6  19
ATOM     19  CB  LEU A   2       9.329  -3.891  24.783  0.00  0.00    +0.034 C 
BRANCH  19  20
ATOM     20  CG  LEU A   2       8.957  -4.152  26.256  0.00  0.00    -0.015 C 
ATOM     21  CD2 LEU A   2       8.074  -5.391  26.418  0.00  0.00    +0.007 C 
ATOM     22  CD1 LEU A   2       8.230  -2.932  26.830  0.00  0.00    +0.007 C 
ENDBRANCH  19  20
ENDBRANCH   6  19
ENDBRANCH   2   6
ENDBRANCH   1   3
BRANCH   1  23
ATOM     23  C   GLN A   3       9.849   1.325  23.046  0.00  0.00    +0.234 C 
ATOM     24  N   SER A   4       9.009   2.383  23.272  0.00  0.00    -0.301 N 
ATOM     25  H   SER A   4       8.080   2.421  22.854  0.00  0.00    +0.150 HD
ATOM     26  O   GLN A   3      10.942   1.224  23.604  0.00  0.00    -0.274 OA
BRANCH  24  27
ATOM     27  CA  SER A   4       9.287   3.404  24.289  0.00  0.00    +0.184 C 
BRANCH  27  28
ATOM     28  C   SER A   4       7.947   3.768  24.951  0.00  0.00    +0.236 C 
ATOM     29  O   SER A   4       7.881   4.052  26.149  0.00  0.00    -0.274 OA
ATOM     30  N   ALA A   5       6.851   3.801  24.121  0.00  0.00    -0.303 N 
ATOM     31  H   ALA A   5       6.925   3.556  23.138  0.00  0.00    +0.149 HD
BRANCH  30  32
ATOM     32  CA  ALA A   5       5.522   4.138  24.619  0.00  0.00    +0.156 C 
ATOM     33  CB  ALA A   5       4.755   4.990  23.612  0.00  0.00    +0.038 C 
BRANCH  32  34
ATOM     34  C   ALA A   5       4.749   2.835  24.909  0.00  0.00    +0.234 C 
ATOM     35  N   ASP A   6       5.256   2.080  25.941  0.00  0.00    -0.304 N 
ATOM     36  H   ASP A   6       6.044   2.420  26.493  0.00  0.00    +0.149 HD
ATOM     37  O   ALA A   5       3.748   2.486  24.280  0.00  0.00    -0.274 OA
BRANCH  35  38
ATOM     38  CA  ASP A   6       4.558   0.905  26.457  0.00  0.00    +0.142 C 
BRANCH  38  39
ATOM     39  C   ASP A   6       4.336   1.116  27.949  0.00  0.00    +0.245 C 
ATOM     40  O   ASP A   6       4.067   2.214  28.436  0.00  0.00    -0.299 OA
ENDBRANCH  38  39
BRANCH  38  41
ATOM     41  CB  ASP A   6       5.349  -0.375  26.232  0.00  0.00    +0.087 C 
BRANCH  41  42
ATOM     42  CG  ASP A   6       6.348  -0.098  25.149  0.00  0.00    +0.025 C 
ATOM     43  OD1 ASP A   6       7.482   0.295  25.381  0.00  0.00    -0.851 OA
BRANCH  42  44
ATOM     44  OD2 ASP A   6       5.914  -0.420  23.915  0.00  0.00    -0.526 OA
ATOM     45  HD2 ASP A   6       6.580  -0.869  23.351  0.00  0.00    +0.290 HD
ENDBRANCH  42  44
ENDBRANCH  41  42
ENDBRANCH  38  41
ENDBRANCH  35  38
ENDBRANCH  32  34
ENDBRANCH  30  32
ENDBRANCH  27  28
BRANCH  27  46
ATOM     46  CB  SER A   4       9.979   4.635  23.693  0.00  0.00    +0.187 C 
BRANCH  46  47
ATOM     47  OG  SER A   4      11.222   4.296  23.080  0.00  0.00    -0.393 OA
ATOM     48  H   SER A   4      11.812   3.993  23.793  0.00  0.00    +0.209 HD
ENDBRANCH  46  47
ENDBRANCH  27  46
ENDBRANCH  24  27
ENDBRANCH   1  23
BRANCH   1  49
ATOM     49  CB  GLN A   3       8.328   0.836  21.061  0.00  0.00    +0.041 C 
BRANCH  49  50
ATOM     50  CG  GLN A   3       7.900  -0.147  19.974  0.00  0.00    +0.098 C 
BRANCH  50  51
ATOM     51  CD  GLN A   3       6.545  -0.781  20.216  0.00  0.00    +0.211 C 
ATOM     52  NE2 GLN A   3       5.581  -0.551  19.284  0.00  0.00    -0.329 N 
ATOM     53 HE21 GLN A   3       4.667  -0.947  19.474  0.00  0.00    +0.145 HD
ATOM     54 HE22 GLN A   3       5.639   0.172  18.583  0.00  0.00    +0.145 HD
ATOM     55  OE1 GLN A   3       6.331  -1.537  21.156  0.00  0.00    -0.276 OA
ENDBRANCH  50  51
ENDBRANCH  49  50
ENDBRANCH   1  49
TORSDOF 25
ENDMDL
MODEL 18
REMARK VINA RESULT:      -5.6      3.535      8.189
REMARK  Name = MLQSAD-mmff94.pdb
REMARK  29 active torsions:
REMARK  status: ('A' for Active; 'I' for Inactive)
REMARK    1  A    between atoms: _1  and  _2
REMARK    2  A    between atoms: _2  and  _3
REMARK    3  A    between atoms: _2  and  _5
REMARK    4  A    between atoms: _5  and  _6
REMARK    5  A    between atoms: _6  and  _7
REMARK    6  A    between atoms: _7  and  _8
REMARK    7  A    between atoms: _18  and  _19
REMARK    8  A    between atoms: _19  and  _20
REMARK    9  A    between atoms: _19  and  _22
REMARK   10  A    between atoms: _22  and  _23
REMARK   11  A    between atoms: _23  and  _24
REMARK   12  A    between atoms: _23  and  _25
REMARK   13  A    between atoms: _37  and  _38
REMARK   14  A    between atoms: _38  and  _39
REMARK   15  A    between atoms: _38  and  _41
REMARK   16  A    between atoms: _41  and  _42
REMARK   17  A    between atoms: _42  and  _43
REMARK   18  A    between atoms: _54  and  _55
REMARK   19  A    between atoms: _55  and  _56
REMARK   20  A    between atoms: _55  and  _58
REMARK   21  A    between atoms: _58  and  _59
REMARK   22  A    between atoms: _65  and  _66
REMARK   23  A    between atoms: _66  and  _67
REMARK   24  A    between atoms: _66  and  _69
REMARK   25  A    between atoms: _75  and  _76
REMARK   26  A    between atoms: _76  and  _77
REMARK   27  A    between atoms: _76  and  _79
REMARK   28  A    between atoms: _79  and  _80
REMARK   29  A    between atoms: _80  and  _81
REMARK                            x       y       z     vdW  Elec       q    Type
REMARK                         _______ _______ _______ _____ _____    ______ ____
ROOT
ATOM      1  CA  GLN A   3       6.082  -4.523  22.370  0.00  0.00    +0.159 C 
ENDROOT
BRANCH   1   3
ATOM      2  C   LEU A   2       6.280  -2.283  21.298  0.00  0.00    +0.234 C 
ATOM      3  N   GLN A   3       6.571  -3.145  22.328  0.00  0.00    -0.302 N 
ATOM      4  H   GLN A   3       7.204  -2.862  23.073  0.00  0.00    +0.150 HD
ATOM      5  O   LEU A   2       5.560  -2.600  20.351  0.00  0.00    -0.274 OA
BRANCH   2   6
ATOM      6  CA  LEU A   2       6.893  -0.873  21.434  0.00  0.00    +0.159 C 
BRANCH   6   8
ATOM      7  C   MET A   1       7.757  -0.324  23.702  0.00  0.00    +0.230 C 
ATOM      8  N   LEU A   2       7.902  -0.948  22.487  0.00  0.00    -0.303 N 
ATOM      9  H   LEU A   2       8.635  -1.639  22.356  0.00  0.00    +0.149 HD
ATOM     10  O   MET A   1       6.798   0.394  23.978  0.00  0.00    -0.274 OA
BRANCH   7  11
ATOM     11  CA  MET A   1       8.901  -0.583  24.706  0.00  0.00    +0.138 C 
BRANCH  11  12
ATOM     12  N   MET A   1       8.786  -1.966  25.212  0.00  0.00    -0.320 NA
ATOM     13  H1  MET A   1       7.879  -2.339  24.922  0.00  0.00    +0.119 HD
ATOM     14  H2  MET A   1       9.458  -2.535  24.684  0.00  0.00    +0.119 HD
ENDBRANCH  11  12
BRANCH  11  15
ATOM     15  CB  MET A   1      10.243  -0.345  24.003  0.00  0.00    +0.038 C 
BRANCH  15  16
ATOM     16  CG  MET A   1      10.953   0.912  24.506  0.00  0.00    +0.071 C 
BRANCH  16  17
ATOM     17  SD  MET A   1      10.191   2.393  23.763  0.00  0.00    -0.164 S 
ATOM     18  CE  MET A   1      10.122   1.825  22.046  0.00  0.00    +0.084 C 
ENDBRANCH  16  17
ENDBRANCH  15  16
ENDBRANCH  11  15
ENDBRANCH   7  11
ENDBRANCH   6   8
BRANCH   6  19
ATOM     19  CB  LEU A   2       7.495  -0.448  20.084  0.00  0.00    +0.034 C 
BRANCH  19  20
ATOM     20  CG  LEU A   2       6.817   0.757  19.403  0.00  0.00    -0.015 C 
ATOM     21  CD2 LEU A   2       6.033   1.617  20.396  0.00  0.00    +0.007 C 
ATOM     22  CD1 LEU A   2       5.872   0.264  18.303  0.00  0.00    +0.007 C 
ENDBRANCH  19  20
ENDBRANCH   6  19
ENDBRANCH   2   6
ENDBRANCH   1   3
BRANCH   1  23
ATOM     23  C   GLN A   3       4.695  -4.465  23.045  0.00  0.00    +0.234 C 
ATOM     24  N   SER A   4       3.907  -5.574  22.884  0.00  0.00    -0.301 N 
ATOM     25  H   SER A   4       4.246  -6.398  22.388  0.00  0.00    +0.150 HD
ATOM     26  O   GLN A   3       4.332  -3.493  23.708  0.00  0.00    -0.274 OA
BRANCH  24  27
ATOM     27  CA  SER A   4       2.631  -5.741  23.589  0.00  0.00    +0.184 C 
BRANCH  27  28
ATOM     28  C   SER A   4       2.949  -6.309  24.983  0.00  0.00    +0.236 C 
ATOM     29  O   SER A   4       2.876  -7.517  25.214  0.00  0.00    -0.274 OA
ATOM     30  N   ALA A   5       3.362  -5.398  25.928  0.00  0.00    -0.303 N 
ATOM     31  H   ALA A   5       3.409  -4.405  25.720  0.00  0.00    +0.149 HD
BRANCH  30  32
ATOM     32  CA  ALA A   5       3.701  -5.804  27.288  0.00  0.00    +0.156 C 
ATOM     33  CB  ALA A   5       5.079  -6.456  27.342  0.00  0.00    +0.038 C 
BRANCH  32  34
ATOM     34  C   ALA A   5       3.663  -4.565  28.206  0.00  0.00    +0.234 C 
ATOM     35  N   ASP A   6       3.808  -3.360  27.558  0.00  0.00    -0.304 N 
ATOM     36  H   ASP A   6       3.865  -3.323  26.541  0.00  0.00    +0.149 HD
ATOM     37  O   ALA A   5       3.509  -4.632  29.427  0.00  0.00    -0.274 OA
BRANCH  35  38
ATOM     38  CA  ASP A   6       3.632  -2.084  28.248  0.00  0.00    +0.142 C 
BRANCH  38  39
ATOM     39  C   ASP A   6       2.265  -1.535  27.863  0.00  0.00    +0.245 C 
ATOM     40  O   ASP A   6       1.969  -1.226  26.709  0.00  0.00    -0.299 OA
ENDBRANCH  38  39
BRANCH  38  41
ATOM     41  CB  ASP A   6       4.712  -1.080  27.875  0.00  0.00    +0.087 C 
BRANCH  41  42
ATOM     42  CG  ASP A   6       5.412  -1.608  26.659  0.00  0.00    +0.025 C 
ATOM     43  OD1 ASP A   6       6.385  -2.346  26.725  0.00  0.00    -0.851 OA
BRANCH  42  44
ATOM     44  OD2 ASP A   6       4.810  -1.281  25.500  0.00  0.00    -0.526 OA
ATOM     45  HD2 ASP A   6       5.395  -0.843  24.843  0.00  0.00    +0.290 HD
ENDBRANCH  42  44
ENDBRANCH  41  42
ENDBRANCH  38  41
ENDBRANCH  35  38
ENDBRANCH  32  34
ENDBRANCH  30  32
ENDBRANCH  27  28
BRANCH  27  46
ATOM     46  CB  SER A   4       1.661  -6.642  22.818  0.00  0.00    +0.187 C 
BRANCH  46  47
ATOM     47  OG  SER A   4       2.196  -7.951  22.626  0.00  0.00    -0.393 OA
ATOM     48  H   SER A   4       1.851  -8.272  21.774  0.00  0.00    +0.209 HD
ENDBRANCH  46  47
ENDBRANCH  27  46
ENDBRANCH  24  27
ENDBRANCH   1  23
BRANCH   1  49
ATOM     49  CB  GLN A   3       7.059  -5.412  23.154  0.00  0.00    +0.041 C 
BRANCH  49  50
ATOM     50  CG  GLN A   3       7.108  -5.105  24.649  0.00  0.00    +0.098 C 
BRANCH  50  51
ATOM     51  CD  GLN A   3       8.485  -5.258  25.263  0.00  0.00    +0.211 C 
ATOM     52  NE2 GLN A   3       8.545  -5.758  26.527  0.00  0.00    -0.329 N 
ATOM     53 HE21 GLN A   3       9.466  -5.822  26.943  0.00  0.00    +0.145 HD
ATOM     54 HE22 GLN A   3       7.749  -5.820  27.144  0.00  0.00    +0.145 HD
ATOM     55  OE1 GLN A   3       9.513  -5.028  24.638  0.00  0.00    -0.276 OA
ENDBRANCH  50  51
ENDBRANCH  49  50
ENDBRANCH   1  49
TORSDOF 25
ENDMDL
MODEL 19
REMARK VINA RESULT:      -5.6      2.997      7.262
REMARK  Name = MLQSAD-mmff94.pdb
REMARK  29 active torsions:
REMARK  status: ('A' for Active; 'I' for Inactive)
REMARK    1  A    between atoms: _1  and  _2
REMARK    2  A    between atoms: _2  and  _3
REMARK    3  A    between atoms: _2  and  _5
REMARK    4  A    between atoms: _5  and  _6
REMARK    5  A    between atoms: _6  and  _7
REMARK    6  A    between atoms: _7  and  _8
REMARK    7  A    between atoms: _18  and  _19
REMARK    8  A    between atoms: _19  and  _20
REMARK    9  A    between atoms: _19  and  _22
REMARK   10  A    between atoms: _22  and  _23
REMARK   11  A    between atoms: _23  and  _24
REMARK   12  A    between atoms: _23  and  _25
REMARK   13  A    between atoms: _37  and  _38
REMARK   14  A    between atoms: _38  and  _39
REMARK   15  A    between atoms: _38  and  _41
REMARK   16  A    between atoms: _41  and  _42
REMARK   17  A    between atoms: _42  and  _43
REMARK   18  A    between atoms: _54  and  _55
REMARK   19  A    between atoms: _55  and  _56
REMARK   20  A    between atoms: _55  and  _58
REMARK   21  A    between atoms: _58  and  _59
REMARK   22  A    between atoms: _65  and  _66
REMARK   23  A    between atoms: _66  and  _67
REMARK   24  A    between atoms: _66  and  _69
REMARK   25  A    between atoms: _75  and  _76
REMARK   26  A    between atoms: _76  and  _77
REMARK   27  A    between atoms: _76  and  _79
REMARK   28  A    between atoms: _79  and  _80
REMARK   29  A    between atoms: _80  and  _81
REMARK                            x       y       z     vdW  Elec       q    Type
REMARK                         _______ _______ _______ _____ _____    ______ ____
ROOT
ATOM      1  CA  GLN A   3       6.494  -0.461  20.850  0.00  0.00    +0.159 C 
ENDROOT
BRANCH   1   3
ATOM      2  C   LEU A   2       6.472   1.514  22.368  0.00  0.00    +0.234 C 
ATOM      3  N   GLN A   3       6.658   0.169  22.160  0.00  0.00    -0.302 N 
ATOM      4  H   GLN A   3       6.987  -0.428  22.916  0.00  0.00    +0.150 HD
ATOM      5  O   LEU A   2       6.124   2.282  21.471  0.00  0.00    -0.274 OA
BRANCH   2   6
ATOM      6  CA  LEU A   2       6.695   1.987  23.820  0.00  0.00    +0.159 C 
BRANCH   6   8
ATOM      7  C   MET A   1       7.365   0.271  25.492  0.00  0.00    +0.230 C 
ATOM      8  N   LEU A   2       7.665   1.075  24.420  0.00  0.00    -0.303 N 
ATOM      9  H   LEU A   2       8.519   0.918  23.892  0.00  0.00    +0.149 HD
ATOM     10  O   MET A   1       6.280   0.299  26.069  0.00  0.00    -0.274 OA
BRANCH   7  11
ATOM     11  CA  MET A   1       8.503  -0.674  25.934  0.00  0.00    +0.138 C 
BRANCH  11  12
ATOM     12  N   MET A   1       7.996  -2.061  25.936  0.00  0.00    -0.320 NA
ATOM     13  H1  MET A   1       7.671  -2.282  26.880  0.00  0.00    +0.119 HD
ATOM     14  H2  MET A   1       7.134  -2.066  25.380  0.00  0.00    +0.119 HD
ENDBRANCH  11  12
BRANCH  11  15
ATOM     15  CB  MET A   1       9.691  -0.504  24.978  0.00  0.00    +0.038 C 
BRANCH  15  16
ATOM     16  CG  MET A   1       9.968  -1.764  24.160  0.00  0.00    +0.071 C 
BRANCH  16  17
ATOM     17  SD  MET A   1      10.244  -1.318  22.412  0.00  0.00    -0.164 S 
ATOM     18  CE  MET A   1      10.257   0.482  22.594  0.00  0.00    +0.084 C 
ENDBRANCH  16  17
ENDBRANCH  15  16
ENDBRANCH  11  15
ENDBRANCH   7  11
ENDBRANCH   6   8
BRANCH   6  19
ATOM     19  CB  LEU A   2       7.198   3.441  23.809  0.00  0.00    +0.034 C 
BRANCH  19  20
ATOM     20  CG  LEU A   2       8.434   3.724  24.687  0.00  0.00    -0.015 C 
ATOM     21  CD2 LEU A   2       8.209   4.901  25.638  0.00  0.00    +0.007 C 
ATOM     22  CD1 LEU A   2       9.645   4.016  23.796  0.00  0.00    +0.007 C 
ENDBRANCH  19  20
ENDBRANCH   6  19
ENDBRANCH   2   6
ENDBRANCH   1   3
BRANCH   1  23
ATOM     23  C   GLN A   3       6.263  -1.963  21.122  0.00  0.00    +0.234 C 
ATOM     24  N   SER A   4       6.867  -2.464  22.245  0.00  0.00    -0.301 N 
ATOM     25  H   SER A   4       7.393  -1.863  22.877  0.00  0.00    +0.150 HD
ATOM     26  O   GLN A   3       5.558  -2.658  20.390  0.00  0.00    -0.274 OA
BRANCH  24  27
ATOM     27  CA  SER A   4       6.618  -3.828  22.728  0.00  0.00    +0.184 C 
BRANCH  27  28
ATOM     28  C   SER A   4       5.426  -3.759  23.698  0.00  0.00    +0.236 C 
ATOM     29  O   SER A   4       5.369  -2.905  24.584  0.00  0.00    -0.274 OA
ATOM     30  N   ALA A   5       4.419  -4.672  23.484  0.00  0.00    -0.303 N 
ATOM     31  H   ALA A   5       4.488  -5.374  22.753  0.00  0.00    +0.149 HD
BRANCH  30  32
ATOM     32  CA  ALA A   5       3.228  -4.712  24.327  0.00  0.00    +0.156 C 
ATOM     33  CB  ALA A   5       2.039  -5.302  23.575  0.00  0.00    +0.038 C 
BRANCH  32  34
ATOM     34  C   ALA A   5       3.531  -5.552  25.584  0.00  0.00    +0.234 C 
ATOM     35  N   ASP A   6       3.714  -4.823  26.737  0.00  0.00    -0.304 N 
ATOM     36  H   ASP A   6       3.585  -3.812  26.735  0.00  0.00    +0.149 HD
ATOM     37  O   ALA A   5       3.600  -6.783  25.576  0.00  0.00    -0.274 OA
BRANCH  35  38
ATOM     38  CA  ASP A   6       3.845  -5.461  28.044  0.00  0.00    +0.142 C 
BRANCH  38  39
ATOM     39  C   ASP A   6       2.532  -5.264  28.790  0.00  0.00    +0.245 C 
ATOM     40  O   ASP A   6       2.144  -6.026  29.675  0.00  0.00    -0.299 OA
ENDBRANCH  38  39
BRANCH  38  41
ATOM     41  CB  ASP A   6       4.990  -4.872  28.855  0.00  0.00    +0.087 C 
BRANCH  41  42
ATOM     42  CG  ASP A   6       6.242  -5.041  28.049  0.00  0.00    +0.025 C 
ATOM     43  OD1 ASP A   6       6.957  -6.028  28.139  0.00  0.00    -0.851 OA
BRANCH  42  44
ATOM     44  OD2 ASP A   6       6.445  -4.060  27.149  0.00  0.00    -0.526 OA
ATOM     45  HD2 ASP A   6       6.929  -4.338  26.341  0.00  0.00    +0.290 HD
ENDBRANCH  42  44
ENDBRANCH  41  42
ENDBRANCH  38  41
ENDBRANCH  35  38
ENDBRANCH  32  34
ENDBRANCH  30  32
ENDBRANCH  27  28
BRANCH  27  46
ATOM     46  CB  SER A   4       7.857  -4.436  23.394  0.00  0.00    +0.187 C 
BRANCH  46  47
ATOM     47  OG  SER A   4       7.558  -4.954  24.690  0.00  0.00    -0.393 OA
ATOM     48  H   SER A   4       6.599  -5.120  24.711  0.00  0.00    +0.209 HD
ENDBRANCH  46  47
ENDBRANCH  27  46
ENDBRANCH  24  27
ENDBRANCH   1  23
BRANCH   1  49
ATOM     49  CB  GLN A   3       7.742  -0.226  19.986  0.00  0.00    +0.041 C 
BRANCH  49  50
ATOM     50  CG  GLN A   3       7.465   0.549  18.700  0.00  0.00    +0.098 C 
BRANCH  50  51
ATOM     51  CD  GLN A   3       6.045   0.405  18.189  0.00  0.00    +0.211 C 
ATOM     52  NE2 GLN A   3       5.175   1.404  18.495  0.00  0.00    -0.329 N 
ATOM     53 HE21 GLN A   3       4.219   1.281  18.181  0.00  0.00    +0.145 HD
ATOM     54 HE22 GLN A   3       5.347   2.100  19.205  0.00  0.00    +0.145 HD
ATOM     55  OE1 GLN A   3       5.699  -0.518  17.461  0.00  0.00    -0.276 OA
ENDBRANCH  50  51
ENDBRANCH  49  50
ENDBRANCH   1  49
TORSDOF 25
ENDMDL
MODEL 20
REMARK VINA RESULT:      -5.6      2.732      7.062
REMARK  Name = MLQSAD-mmff94.pdb
REMARK  29 active torsions:
REMARK  status: ('A' for Active; 'I' for Inactive)
REMARK    1  A    between atoms: _1  and  _2
REMARK    2  A    between atoms: _2  and  _3
REMARK    3  A    between atoms: _2  and  _5
REMARK    4  A    between atoms: _5  and  _6
REMARK    5  A    between atoms: _6  and  _7
REMARK    6  A    between atoms: _7  and  _8
REMARK    7  A    between atoms: _18  and  _19
REMARK    8  A    between atoms: _19  and  _20
REMARK    9  A    between atoms: _19  and  _22
REMARK   10  A    between atoms: _22  and  _23
REMARK   11  A    between atoms: _23  and  _24
REMARK   12  A    between atoms: _23  and  _25
REMARK   13  A    between atoms: _37  and  _38
REMARK   14  A    between atoms: _38  and  _39
REMARK   15  A    between atoms: _38  and  _41
REMARK   16  A    between atoms: _41  and  _42
REMARK   17  A    between atoms: _42  and  _43
REMARK   18  A    between atoms: _54  and  _55
REMARK   19  A    between atoms: _55  and  _56
REMARK   20  A    between atoms: _55  and  _58
REMARK   21  A    between atoms: _58  and  _59
REMARK   22  A    between atoms: _65  and  _66
REMARK   23  A    between atoms: _66  and  _67
REMARK   24  A    between atoms: _66  and  _69
REMARK   25  A    between atoms: _75  and  _76
REMARK   26  A    between atoms: _76  and  _77
REMARK   27  A    between atoms: _76  and  _79
REMARK   28  A    between atoms: _79  and  _80
REMARK   29  A    between atoms: _80  and  _81
REMARK                            x       y       z     vdW  Elec       q    Type
REMARK                         _______ _______ _______ _____ _____    ______ ____
ROOT
ATOM      1  CA  GLN A   3       6.689  -0.575  21.330  0.00  0.00    +0.159 C 
ENDROOT
BRANCH   1   3
ATOM      2  C   LEU A   2       6.768   1.448  22.782  0.00  0.00    +0.234 C 
ATOM      3  N   GLN A   3       6.817   0.083  22.630  0.00  0.00    -0.302 N 
ATOM      4  H   GLN A   3       7.016  -0.516  23.429  0.00  0.00    +0.150 HD
ATOM      5  O   LEU A   2       6.580   2.215  21.837  0.00  0.00    -0.274 OA
BRANCH   2   6
ATOM      6  CA  LEU A   2       6.927   1.950  24.233  0.00  0.00    +0.159 C 
BRANCH   6   8
ATOM      7  C   MET A   1       5.681   0.767  26.033  0.00  0.00    +0.230 C 
ATOM      8  N   LEU A   2       6.695   0.803  25.107  0.00  0.00    -0.303 N 
ATOM      9  H   LEU A   2       7.198  -0.048  24.873  0.00  0.00    +0.149 HD
ATOM     10  O   MET A   1       4.929   1.717  26.242  0.00  0.00    -0.274 OA
BRANCH   7  11
ATOM     11  CA  MET A   1       5.558  -0.561  26.810  0.00  0.00    +0.138 C 
BRANCH  11  12
ATOM     12  N   MET A   1       6.822  -1.313  26.670  0.00  0.00    -0.320 NA
ATOM     13  H1  MET A   1       7.394  -0.848  25.962  0.00  0.00    +0.119 HD
ATOM     14  H2  MET A   1       7.353  -1.171  27.537  0.00  0.00    +0.119 HD
ENDBRANCH  11  12
BRANCH  11  15
ATOM     15  CB  MET A   1       5.241  -0.252  28.278  0.00  0.00    +0.038 C 
BRANCH  15  16
ATOM     16  CG  MET A   1       3.876  -0.788  28.708  0.00  0.00    +0.071 C 
BRANCH  16  17
ATOM     17  SD  MET A   1       3.798  -2.588  28.418  0.00  0.00    -0.164 S 
ATOM     18  CE  MET A   1       3.678  -3.131  30.139  0.00  0.00    +0.084 C 
ENDBRANCH  16  17
ENDBRANCH  15  16
ENDBRANCH  11  15
ENDBRANCH   7  11
ENDBRANCH   6   8
BRANCH   6  19
ATOM     19  CB  LEU A   2       8.336   2.540  24.415  0.00  0.00    +0.034 C 
BRANCH  19  20
ATOM     20  CG  LEU A   2       9.478   1.753  23.741  0.00  0.00    -0.015 C 
ATOM     21  CD2 LEU A   2      10.173   0.797  24.712  0.00  0.00    +0.007 C 
ATOM     22  CD1 LEU A   2      10.508   2.729  23.165  0.00  0.00    +0.007 C 
ENDBRANCH  19  20
ENDBRANCH   6  19
ENDBRANCH   2   6
ENDBRANCH   1   3
BRANCH   1  23
ATOM     23  C   GLN A   3       6.645  -2.090  21.620  0.00  0.00    +0.234 C 
ATOM     24  N   SER A   4       7.480  -2.531  22.613  0.00  0.00    -0.301 N 
ATOM     25  H   SER A   4       8.052  -1.883  23.151  0.00  0.00    +0.150 HD
ATOM     26  O   GLN A   3       5.888  -2.850  21.014  0.00  0.00    -0.274 OA
BRANCH  24  27
ATOM     27  CA  SER A   4       7.444  -3.910  23.116  0.00  0.00    +0.184 C 
BRANCH  27  28
ATOM     28  C   SER A   4       6.109  -4.093  23.857  0.00  0.00    +0.236 C 
ATOM     29  O   SER A   4       5.741  -3.293  24.719  0.00  0.00    -0.274 OA
ATOM     30  N   ALA A   5       5.341  -5.166  23.467  0.00  0.00    -0.303 N 
ATOM     31  H   ALA A   5       5.665  -5.818  22.760  0.00  0.00    +0.149 HD
BRANCH  30  32
ATOM     32  CA  ALA A   5       4.050  -5.450  24.084  0.00  0.00    +0.156 C 
ATOM     33  CB  ALA A   5       3.057  -5.993  23.061  0.00  0.00    +0.038 C 
BRANCH  32  34
ATOM     34  C   ALA A   5       4.251  -6.472  25.222  0.00  0.00    +0.234 C 
ATOM     35  N   ASP A   6       4.754  -5.946  26.390  0.00  0.00    -0.304 N 
ATOM     36  H   ASP A   6       4.907  -4.941  26.481  0.00  0.00    +0.149 HD
ATOM     37  O   ALA A   5       3.981  -7.670  25.113  0.00  0.00    -0.274 OA
BRANCH  35  38
ATOM     38  CA  ASP A   6       4.852  -6.734  27.616  0.00  0.00    +0.142 C 
BRANCH  38  39
ATOM     39  C   ASP A   6       3.582  -6.496  28.422  0.00  0.00    +0.245 C 
ATOM     40  O   ASP A   6       3.285  -7.162  29.414  0.00  0.00    -0.299 OA
ENDBRANCH  38  39
BRANCH  38  41
ATOM     41  CB  ASP A   6       6.067  -6.350  28.447  0.00  0.00    +0.087 C 
BRANCH  41  42
ATOM     42  CG  ASP A   6       6.910  -5.436  27.609  0.00  0.00    +0.025 C 
ATOM     43  OD1 ASP A   6       6.788  -4.220  27.629  0.00  0.00    -0.851 OA
BRANCH  42  44
ATOM     44  OD2 ASP A   6       7.876  -6.071  26.917  0.00  0.00    -0.526 OA
ATOM     45  HD2 ASP A   6       8.232  -6.875  27.354  0.00  0.00    +0.290 HD
ENDBRANCH  42  44
ENDBRANCH  41  42
ENDBRANCH  38  41
ENDBRANCH  35  38
ENDBRANCH  32  34
ENDBRANCH  30  32
ENDBRANCH  27  28
BRANCH  27  46
ATOM     46  CB  SER A   4       8.641  -4.224  24.018  0.00  0.00    +0.187 C 
BRANCH  46  47
ATOM     47  OG  SER A   4       8.555  -3.539  25.267  0.00  0.00    -0.393 OA
ATOM     48  H   SER A   4       8.306  -4.204  25.934  0.00  0.00    +0.209 HD
ENDBRANCH  46  47
ENDBRANCH  27  46
ENDBRANCH  24  27
ENDBRANCH   1  23
BRANCH   1  49
ATOM     49  CB  GLN A   3       7.872  -0.204  20.425  0.00  0.00    +0.041 C 
BRANCH  49  50
ATOM     50  CG  GLN A   3       7.468   0.149  18.995  0.00  0.00    +0.098 C 
BRANCH  50  51
ATOM     51  CD  GLN A   3       6.005  -0.100  18.691  0.00  0.00    +0.211 C 
ATOM     52  NE2 GLN A   3       5.671  -1.339  18.238  0.00  0.00    -0.329 N 
ATOM     53 HE21 GLN A   3       4.696  -1.484  18.002  0.00  0.00    +0.145 HD
ATOM     54 HE22 GLN A   3       6.340  -2.008  17.890  0.00  0.00    +0.145 HD
ATOM     55  OE1 GLN A   3       5.135   0.734  18.915  0.00  0.00    -0.276 OA
ENDBRANCH  50  51
ENDBRANCH  49  50
ENDBRANCH   1  49
TORSDOF 25
ENDMDL
