REMARK  Name = RLQAGN-mmff94.pdb
REMARK  26 active torsions:
REMARK  status: ('A' for Active; 'I' for Inactive)
REMARK    1  A    between atoms: _1  and  _2
REMARK    2  A    between atoms: _2  and  _3
REMARK    3  A    between atoms: _2  and  _5
REMARK    4  A    between atoms: _5  and  _6
REMARK    5  A    between atoms: _6  and  _7
REMARK    6  A    between atoms: _7  and  _8
REMARK    7  A    between atoms: _25  and  _26
REMARK    8  A    between atoms: _26  and  _27
REMARK    9  A    between atoms: _26  and  _29
REMARK   10  A    between atoms: _29  and  _30
REMARK   11  A    between atoms: _30  and  _31
REMARK   12  A    between atoms: _30  and  _32
REMARK   13  A    between atoms: _44  and  _45
REMARK   14  A    between atoms: _45  and  _46
REMARK   15  A    between atoms: _45  and  _48
REMARK   16  A    between atoms: _48  and  _49
REMARK   17  A    between atoms: _49  and  _50
REMARK   18  A    between atoms: _61  and  _62
REMARK   19  A    between atoms: _62  and  _63
REMARK   20  A    between atoms: _62  and  _65
REMARK   21  A    between atoms: _71  and  _72
REMARK   22  A    between atoms: _72  and  _73
REMARK   23  A    between atoms: _78  and  _79
REMARK   24  A    between atoms: _79  and  _80
REMARK   25  A    between atoms: _79  and  _82
REMARK   26  A    between atoms: _82  and  _83
REMARK                            x       y       z     vdW  Elec       q    Type
REMARK                         _______ _______ _______ _____ _____    ______ ____
ROOT
ATOM      1  CA  GLN A   3       6.206  -0.593  -1.779  0.00  0.00    +0.159 C 
ENDROOT
BRANCH   1   2
ATOM      2  C   GLN A   3       7.741  -0.589  -1.649  0.00  0.00    +0.234 C 
ATOM      3  O   GLN A   3       8.293  -0.833  -0.575  0.00  0.00    -0.274 OA
ATOM      4  N   ALA A   4       8.439  -0.263  -2.783  0.00  0.00    -0.303 N 
ATOM      5  H   ALA A   4       7.973  -0.136  -3.677  0.00  0.00    +0.149 HD
BRANCH   4   6
ATOM      6  CA  ALA A   4       9.902  -0.264  -2.818  0.00  0.00    +0.156 C 
ATOM      7  CB  ALA A   4      10.451  -1.688  -2.868  0.00  0.00    +0.038 C 
BRANCH   6   8
ATOM      8  C   ALA A   4      10.358   0.529  -4.058  0.00  0.00    +0.233 C 
ATOM      9  N   GLY A   5      11.709   0.750  -4.138  0.00  0.00    -0.305 N 
ATOM     10  H   GLY A   5      12.331   0.478  -3.381  0.00  0.00    +0.149 HD
ATOM     11  O   ALA A   4       9.561   0.919  -4.912  0.00  0.00    -0.274 OA
BRANCH   9  12
ATOM     12  CA  GLY A   5      12.324   1.405  -5.278  0.00  0.00    +0.200 C 
BRANCH  12  13
ATOM     13  C   GLY A   5      13.838   1.459  -5.072  0.00  0.00    +0.231 C 
ATOM     14  O   GLY A   5      14.360   1.325  -3.966  0.00  0.00    -0.274 OA
ATOM     15  N   ASN A   6      14.567   1.691  -6.212  0.00  0.00    -0.304 N 
ATOM     16  H   ASN A   6      14.097   1.887  -7.094  0.00  0.00    +0.149 HD
BRANCH  15  17
ATOM     17  CA  ASN A   6      16.025   1.759  -6.212  0.00  0.00    +0.145 C 
BRANCH  17  18
ATOM     18  C   ASN A   6      16.435   2.705  -7.332  0.00  0.00    +0.245 C 
ATOM     19  O   ASN A   6      15.656   3.121  -8.188  0.00  0.00    -0.299 OA
ENDBRANCH  17  18
BRANCH  17  20
ATOM     20  CB  ASN A   6      16.686   0.409  -6.459  0.00  0.00    +0.125 C 
BRANCH  20  21
ATOM     21  CG  ASN A   6      16.435  -0.614  -5.378  0.00  0.00    +0.213 C 
ATOM     22  ND2 ASN A   6      16.929  -0.331  -4.140  0.00  0.00    -0.329 N 
ATOM     23 HD21 ASN A   6      16.666  -1.007  -3.431  0.00  0.00    +0.145 HD
ATOM     24 HD22 ASN A   6      16.943   0.624  -3.806  0.00  0.00    +0.145 HD
ATOM     25  OD1 ASN A   6      15.871  -1.681  -5.596  0.00  0.00    -0.276 OA
ENDBRANCH  20  21
ENDBRANCH  17  20
ENDBRANCH  15  17
ENDBRANCH  12  13
ENDBRANCH   9  12
ENDBRANCH   6   8
ENDBRANCH   4   6
ENDBRANCH   1   2
BRANCH   1  27
ATOM     26  C   LEU A   2       4.433  -1.934  -0.650  0.00  0.00    +0.234 C 
ATOM     27  N   GLN A   3       5.715  -1.444  -0.696  0.00  0.00    -0.302 N 
ATOM     28  H   GLN A   3       6.369  -1.628   0.064  0.00  0.00    +0.150 HD
ATOM     29  O   LEU A   2       3.596  -1.673  -1.516  0.00  0.00    -0.274 OA
BRANCH  26  30
ATOM     30  CA  LEU A   2       4.120  -2.819   0.579  0.00  0.00    +0.159 C 
BRANCH  30  33
ATOM     31  C   ARG A   1       1.844  -2.568   1.520  0.00  0.00    +0.230 C 
ATOM     32  O   ARG A   1       2.238  -2.008   2.540  0.00  0.00    -0.274 OA
ATOM     33  N   LEU A   2       2.685  -3.087   0.566  0.00  0.00    -0.303 N 
ATOM     34  H   LEU A   2       2.296  -3.343  -0.335  0.00  0.00    +0.149 HD
BRANCH  31  35
ATOM     35  CA  ARG A   1       0.345  -2.729   1.196  0.00  0.00    +0.138 C 
BRANCH  35  36
ATOM     36  N   ARG A   1      -0.322  -3.405   2.321  0.00  0.00    -0.320 NA
ATOM     37  H1  ARG A   1       0.108  -4.322   2.459  0.00  0.00    +0.119 HD
ATOM     38  H2  ARG A   1      -0.094  -2.891   3.179  0.00  0.00    +0.119 HD
ENDBRANCH  35  36
BRANCH  35  39
ATOM     39  CB  ARG A   1      -0.291  -1.349   0.979  0.00  0.00    +0.031 C 
BRANCH  39  40
ATOM     40  CG  ARG A   1       0.346  -0.592  -0.191  0.00  0.00    +0.039 C 
BRANCH  40  41
ATOM     41  CD  ARG A   1      -0.289   0.780  -0.387  0.00  0.00    +0.196 C 
BRANCH  41  42
ATOM     42  NE  ARG A   1       0.478   1.571  -1.360  0.00  0.00    -0.279 N 
ATOM     43  CZ  ARG A   1       0.108   2.770  -1.827  0.00  0.00    +0.341 C 
ATOM     44  NH2 ARG A   1      -1.040   3.346  -1.459  0.00  0.00    -0.292 N 
ATOM     45 HH21 ARG A   1      -1.665   2.896  -0.804  0.00  0.00    +0.255 HD
ATOM     46 HH22 ARG A   1      -1.310   4.254  -1.810  0.00  0.00    +0.255 HD
ATOM     47  NH1 ARG A   1       0.898   3.419  -2.679  0.00  0.00    -0.292 N 
ATOM     48 HH11 ARG A   1       0.653   4.309  -3.084  0.00  0.00    +0.255 HD
ATOM     49 HH12 ARG A   1       1.839   3.063  -2.892  0.00  0.00    +0.255 HD
ATOM     50  HE  ARG A   1       1.357   1.204  -1.717  0.00  0.00    +0.258 HD
ENDBRANCH  41  42
ENDBRANCH  40  41
ENDBRANCH  39  40
ENDBRANCH  35  39
ENDBRANCH  31  35
ENDBRANCH  30  33
BRANCH  30  51
ATOM     51  CB  LEU A   2       4.916  -4.130   0.541  0.00  0.00    +0.034 C 
BRANCH  51  52
ATOM     52  CG  LEU A   2       4.706  -5.023   1.782  0.00  0.00    -0.015 C 
ATOM     53  CD2 LEU A   2       5.229  -4.367   3.061  0.00  0.00    +0.007 C 
ATOM     54  CD1 LEU A   2       5.396  -6.373   1.576  0.00  0.00    +0.007 C 
ENDBRANCH  51  52
ENDBRANCH  30  51
ENDBRANCH  26  30
ENDBRANCH   1  27
BRANCH   1  55
ATOM     55  CB  GLN A   3       5.635   0.825  -1.647  0.00  0.00    +0.041 C 
BRANCH  55  56
ATOM     56  CG  GLN A   3       5.509   1.543  -2.988  0.00  0.00    +0.098 C 
BRANCH  56  57
ATOM     57  CD  GLN A   3       4.624   2.758  -2.820  0.00  0.00    +0.211 C 
ATOM     58  NE2 GLN A   3       5.278   3.911  -2.515  0.00  0.00    -0.329 N 
ATOM     59 HE21 GLN A   3       6.290   3.983  -2.507  0.00  0.00    +0.145 HD
ATOM     60 HE22 GLN A   3       4.756   4.770  -2.392  0.00  0.00    +0.145 HD
ATOM     61  OE1 GLN A   3       3.395   2.711  -2.876  0.00  0.00    -0.276 OA
ENDBRANCH  56  57
ENDBRANCH  55  56
ENDBRANCH   1  55
TORSDOF 23
