MODEL 1
REMARK VINA RESULT:      -6.6      0.000      0.000
REMARK  Name = RLQAGN-mmff94.pdb
REMARK  26 active torsions:
REMARK  status: ('A' for Active; 'I' for Inactive)
REMARK    1  A    between atoms: _1  and  _2
REMARK    2  A    between atoms: _2  and  _3
REMARK    3  A    between atoms: _2  and  _5
REMARK    4  A    between atoms: _5  and  _6
REMARK    5  A    between atoms: _6  and  _7
REMARK    6  A    between atoms: _7  and  _8
REMARK    7  A    between atoms: _25  and  _26
REMARK    8  A    between atoms: _26  and  _27
REMARK    9  A    between atoms: _26  and  _29
REMARK   10  A    between atoms: _29  and  _30
REMARK   11  A    between atoms: _30  and  _31
REMARK   12  A    between atoms: _30  and  _32
REMARK   13  A    between atoms: _44  and  _45
REMARK   14  A    between atoms: _45  and  _46
REMARK   15  A    between atoms: _45  and  _48
REMARK   16  A    between atoms: _48  and  _49
REMARK   17  A    between atoms: _49  and  _50
REMARK   18  A    between atoms: _61  and  _62
REMARK   19  A    between atoms: _62  and  _63
REMARK   20  A    between atoms: _62  and  _65
REMARK   21  A    between atoms: _71  and  _72
REMARK   22  A    between atoms: _72  and  _73
REMARK   23  A    between atoms: _78  and  _79
REMARK   24  A    between atoms: _79  and  _80
REMARK   25  A    between atoms: _79  and  _82
REMARK   26  A    between atoms: _82  and  _83
REMARK                            x       y       z     vdW  Elec       q    Type
REMARK                         _______ _______ _______ _____ _____    ______ ____
ROOT
ATOM      1  CA  GLN A   3       8.177  -3.905  23.618  0.00  0.00    +0.159 C 
ENDROOT
BRANCH   1   2
ATOM      2  C   GLN A   3       6.735  -3.792  23.088  0.00  0.00    +0.234 C 
ATOM      3  O   GLN A   3       6.483  -3.196  22.039  0.00  0.00    -0.274 OA
ATOM      4  N   ALA A   4       5.761  -4.358  23.870  0.00  0.00    -0.303 N 
ATOM      5  H   ALA A   4       5.992  -4.907  24.693  0.00  0.00    +0.149 HD
BRANCH   4   6
ATOM      6  CA  ALA A   4       4.354  -4.365  23.468  0.00  0.00    +0.156 C 
ATOM      7  CB  ALA A   4       3.907  -5.765  23.053  0.00  0.00    +0.038 C 
BRANCH   6   8
ATOM      8  C   ALA A   4       3.508  -3.864  24.655  0.00  0.00    +0.233 C 
ATOM      9  N   GLY A   5       4.201  -3.146  25.595  0.00  0.00    -0.305 N 
ATOM     10  H   GLY A   5       5.211  -3.041  25.537  0.00  0.00    +0.149 HD
ATOM     11  O   ALA A   4       2.300  -4.087  24.734  0.00  0.00    -0.274 OA
BRANCH   9  12
ATOM     12  CA  GLY A   5       3.550  -2.525  26.735  0.00  0.00    +0.200 C 
BRANCH  12  13
ATOM     13  C   GLY A   5       3.217  -3.599  27.771  0.00  0.00    +0.231 C 
ATOM     14  O   GLY A   5       2.097  -3.717  28.265  0.00  0.00    -0.274 OA
ATOM     15  N   ASN A   6       4.271  -4.405  28.125  0.00  0.00    -0.304 N 
ATOM     16  H   ASN A   6       5.205  -4.221  27.764  0.00  0.00    +0.149 HD
BRANCH  15  17
ATOM     17  CA  ASN A   6       4.138  -5.495  29.087  0.00  0.00    +0.145 C 
BRANCH  17  18
ATOM     18  C   ASN A   6       5.204  -5.290  30.154  0.00  0.00    +0.245 C 
ATOM     19  O   ASN A   6       6.322  -5.800  30.102  0.00  0.00    -0.299 OA
ENDBRANCH  17  18
BRANCH  17  20
ATOM     20  CB  ASN A   6       4.341  -6.870  28.464  0.00  0.00    +0.125 C 
BRANCH  20  21
ATOM     21  CG  ASN A   6       4.150  -6.910  26.967  0.00  0.00    +0.213 C 
ATOM     22  ND2 ASN A   6       2.924  -7.299  26.516  0.00  0.00    -0.329 N 
ATOM     23 HD21 ASN A   6       2.819  -7.232  25.509  0.00  0.00    +0.145 HD
ATOM     24 HD22 ASN A   6       2.091  -7.043  27.030  0.00  0.00    +0.145 HD
ATOM     25  OD1 ASN A   6       5.057  -6.668  26.179  0.00  0.00    -0.276 OA
ENDBRANCH  20  21
ENDBRANCH  17  20
ENDBRANCH  15  17
ENDBRANCH  12  13
ENDBRANCH   9  12
ENDBRANCH   6   8
ENDBRANCH   4   6
ENDBRANCH   1   2
BRANCH   1  27
ATOM     26  C   LEU A   2       9.417  -1.835  24.244  0.00  0.00    +0.234 C 
ATOM     27  N   GLN A   3       8.391  -2.724  24.452  0.00  0.00    -0.302 N 
ATOM     28  H   GLN A   3       7.754  -2.607  25.240  0.00  0.00    +0.150 HD
ATOM     29  O   LEU A   2      10.246  -1.984  23.345  0.00  0.00    -0.274 OA
BRANCH  26  30
ATOM     30  CA  LEU A   2       9.460  -0.650  25.237  0.00  0.00    +0.159 C 
BRANCH  30  33
ATOM     31  C   ARG A   1      10.106   1.412  24.029  0.00  0.00    +0.230 C 
ATOM     32  O   ARG A   1      11.285   1.338  24.365  0.00  0.00    -0.274 OA
ATOM     33  N   LEU A   2       9.132   0.557  24.484  0.00  0.00    -0.303 N 
ATOM     34  H   LEU A   2       8.236   0.547  24.009  0.00  0.00    +0.149 HD
BRANCH  31  35
ATOM     35  CA  ARG A   1       9.599   2.475  23.033  0.00  0.00    +0.138 C 
BRANCH  35  36
ATOM     36  N   ARG A   1      10.456   2.463  21.836  0.00  0.00    -0.320 NA
ATOM     37  H1  ARG A   1      10.286   3.315  21.298  0.00  0.00    +0.119 HD
ATOM     38  H2  ARG A   1      11.431   2.553  22.144  0.00  0.00    +0.119 HD
ENDBRANCH  35  36
BRANCH  35  39
ATOM     39  CB  ARG A   1       8.152   2.159  22.628  0.00  0.00    +0.031 C 
BRANCH  39  40
ATOM     40  CG  ARG A   1       8.036   1.743  21.159  0.00  0.00    +0.039 C 
BRANCH  40  41
ATOM     41  CD  ARG A   1       7.033   0.610  20.971  0.00  0.00    +0.196 C 
BRANCH  41  42
ATOM     42  NE  ARG A   1       6.620   0.512  19.564  0.00  0.00    -0.279 N 
ATOM     43  CZ  ARG A   1       5.885  -0.484  19.054  0.00  0.00    +0.341 C 
ATOM     44  NH2 ARG A   1       5.484  -1.517  19.800  0.00  0.00    -0.292 N 
ATOM     45 HH21 ARG A   1       5.715  -1.575  20.783  0.00  0.00    +0.255 HD
ATOM     46 HH22 ARG A   1       4.923  -2.262  19.411  0.00  0.00    +0.255 HD
ATOM     47  NH1 ARG A   1       5.534  -0.455  17.771  0.00  0.00    -0.292 N 
ATOM     48 HH11 ARG A   1       5.008  -1.194  17.330  0.00  0.00    +0.255 HD
ATOM     49 HH12 ARG A   1       5.723   0.377  17.197  0.00  0.00    +0.255 HD
ATOM     50  HE  ARG A   1       6.898   1.242  18.912  0.00  0.00    +0.258 HD
ENDBRANCH  41  42
ENDBRANCH  40  41
ENDBRANCH  39  40
ENDBRANCH  35  39
ENDBRANCH  31  35
ENDBRANCH  30  33
BRANCH  30  51
ATOM     51  CB  LEU A   2       8.472  -0.853  26.393  0.00  0.00    +0.034 C 
BRANCH  51  52
ATOM     52  CG  LEU A   2       7.453   0.296  26.550  0.00  0.00    -0.015 C 
ATOM     53  CD2 LEU A   2       7.202   0.648  28.018  0.00  0.00    +0.007 C 
ATOM     54  CD1 LEU A   2       6.132  -0.083  25.878  0.00  0.00    +0.007 C 
ENDBRANCH  51  52
ENDBRANCH  30  51
ENDBRANCH  26  30
ENDBRANCH   1  27
BRANCH   1  55
ATOM     55  CB  GLN A   3       8.364  -5.185  24.443  0.00  0.00    +0.041 C 
BRANCH  55  56
ATOM     56  CG  GLN A   3       8.911  -4.915  25.843  0.00  0.00    +0.098 C 
BRANCH  56  57
ATOM     57  CD  GLN A   3       7.767  -4.921  26.832  0.00  0.00    +0.211 C 
ATOM     58  NE2 GLN A   3       7.651  -6.054  27.575  0.00  0.00    -0.329 N 
ATOM     59 HE21 GLN A   3       8.340  -6.799  27.553  0.00  0.00    +0.145 HD
ATOM     60 HE22 GLN A   3       6.913  -6.133  28.265  0.00  0.00    +0.145 HD
ATOM     61  OE1 GLN A   3       6.945  -4.008  26.919  0.00  0.00    -0.276 OA
ENDBRANCH  56  57
ENDBRANCH  55  56
ENDBRANCH   1  55
TORSDOF 23
ENDMDL
MODEL 2
REMARK VINA RESULT:      -6.5      1.839      5.948
REMARK  Name = RLQAGN-mmff94.pdb
REMARK  26 active torsions:
REMARK  status: ('A' for Active; 'I' for Inactive)
REMARK    1  A    between atoms: _1  and  _2
REMARK    2  A    between atoms: _2  and  _3
REMARK    3  A    between atoms: _2  and  _5
REMARK    4  A    between atoms: _5  and  _6
REMARK    5  A    between atoms: _6  and  _7
REMARK    6  A    between atoms: _7  and  _8
REMARK    7  A    between atoms: _25  and  _26
REMARK    8  A    between atoms: _26  and  _27
REMARK    9  A    between atoms: _26  and  _29
REMARK   10  A    between atoms: _29  and  _30
REMARK   11  A    between atoms: _30  and  _31
REMARK   12  A    between atoms: _30  and  _32
REMARK   13  A    between atoms: _44  and  _45
REMARK   14  A    between atoms: _45  and  _46
REMARK   15  A    between atoms: _45  and  _48
REMARK   16  A    between atoms: _48  and  _49
REMARK   17  A    between atoms: _49  and  _50
REMARK   18  A    between atoms: _61  and  _62
REMARK   19  A    between atoms: _62  and  _63
REMARK   20  A    between atoms: _62  and  _65
REMARK   21  A    between atoms: _71  and  _72
REMARK   22  A    between atoms: _72  and  _73
REMARK   23  A    between atoms: _78  and  _79
REMARK   24  A    between atoms: _79  and  _80
REMARK   25  A    between atoms: _79  and  _82
REMARK   26  A    between atoms: _82  and  _83
REMARK                            x       y       z     vdW  Elec       q    Type
REMARK                         _______ _______ _______ _____ _____    ______ ____
ROOT
ATOM      1  CA  GLN A   3      10.019  -0.489  24.944  0.00  0.00    +0.159 C 
ENDROOT
BRANCH   1   2
ATOM      2  C   GLN A   3       8.894  -0.333  25.985  0.00  0.00    +0.234 C 
ATOM      3  O   GLN A   3       8.831  -1.065  26.973  0.00  0.00    -0.274 OA
ATOM      4  N   ALA A   4       7.961   0.636  25.720  0.00  0.00    -0.303 N 
ATOM      5  H   ALA A   4       8.067   1.279  24.940  0.00  0.00    +0.149 HD
BRANCH   4   6
ATOM      6  CA  ALA A   4       6.863   0.926  26.643  0.00  0.00    +0.156 C 
ATOM      7  CB  ALA A   4       6.486   2.405  26.604  0.00  0.00    +0.038 C 
BRANCH   6   8
ATOM      8  C   ALA A   4       5.655   0.055  26.249  0.00  0.00    +0.233 C 
ATOM      9  N   GLY A   5       5.153  -0.729  27.257  0.00  0.00    -0.305 N 
ATOM     10  H   GLY A   5       5.615  -0.779  28.161  0.00  0.00    +0.149 HD
ATOM     11  O   ALA A   4       5.177   0.078  25.114  0.00  0.00    -0.274 OA
BRANCH   9  12
ATOM     12  CA  GLY A   5       3.967  -1.548  27.089  0.00  0.00    +0.200 C 
BRANCH  12  13
ATOM     13  C   GLY A   5       3.805  -2.456  28.307  0.00  0.00    +0.231 C 
ATOM     14  O   GLY A   5       3.542  -2.020  29.427  0.00  0.00    -0.274 OA
ATOM     15  N   ASN A   6       3.998  -3.793  28.060  0.00  0.00    -0.304 N 
ATOM     16  H   ASN A   6       4.303  -4.109  27.141  0.00  0.00    +0.149 HD
BRANCH  15  17
ATOM     17  CA  ASN A   6       3.869  -4.811  29.098  0.00  0.00    +0.145 C 
BRANCH  17  18
ATOM     18  C   ASN A   6       5.240  -4.986  29.735  0.00  0.00    +0.245 C 
ATOM     19  O   ASN A   6       6.238  -5.339  29.110  0.00  0.00    -0.299 OA
ENDBRANCH  17  18
BRANCH  17  20
ATOM     20  CB  ASN A   6       3.416  -6.161  28.557  0.00  0.00    +0.125 C 
BRANCH  20  21
ATOM     21  CG  ASN A   6       3.787  -6.411  27.115  0.00  0.00    +0.213 C 
ATOM     22  ND2 ASN A   6       4.900  -7.164  26.891  0.00  0.00    -0.329 N 
ATOM     23 HD21 ASN A   6       5.062  -7.371  25.911  0.00  0.00    +0.145 HD
ATOM     24 HD22 ASN A   6       5.127  -7.930  27.512  0.00  0.00    +0.145 HD
ATOM     25  OD1 ASN A   6       3.167  -5.918  26.179  0.00  0.00    -0.276 OA
ENDBRANCH  20  21
ENDBRANCH  17  20
ENDBRANCH  15  17
ENDBRANCH  12  13
ENDBRANCH   9  12
ENDBRANCH   6   8
ENDBRANCH   4   6
ENDBRANCH   1   2
BRANCH   1  27
ATOM     26  C   LEU A   2       9.295  -1.930  23.042  0.00  0.00    +0.234 C 
ATOM     27  N   GLN A   3       9.350  -0.705  23.662  0.00  0.00    -0.302 N 
ATOM     28  H   GLN A   3       8.954   0.121  23.215  0.00  0.00    +0.150 HD
ATOM     29  O   LEU A   2       9.824  -2.934  23.520  0.00  0.00    -0.274 OA
BRANCH  26  30
ATOM     30  CA  LEU A   2       8.534  -1.942  21.696  0.00  0.00    +0.159 C 
BRANCH  30  33
ATOM     31  C   ARG A   1       6.592  -3.438  22.038  0.00  0.00    +0.230 C 
ATOM     32  O   ARG A   1       7.191  -4.440  21.655  0.00  0.00    -0.274 OA
ATOM     33  N   LEU A   2       7.124  -2.172  21.996  0.00  0.00    -0.303 N 
ATOM     34  H   LEU A   2       6.662  -1.434  22.515  0.00  0.00    +0.149 HD
BRANCH  31  35
ATOM     35  CA  ARG A   1       5.170  -3.505  22.631  0.00  0.00    +0.138 C 
BRANCH  35  36
ATOM     36  N   ARG A   1       4.661  -4.881  22.509  0.00  0.00    -0.320 NA
ATOM     37  H1  ARG A   1       3.929  -5.027  23.207  0.00  0.00    +0.119 HD
ATOM     38  H2  ARG A   1       4.169  -4.958  21.612  0.00  0.00    +0.119 HD
ENDBRANCH  35  36
BRANCH  35  39
ATOM     39  CB  ARG A   1       5.204  -3.102  24.112  0.00  0.00    +0.031 C 
BRANCH  39  40
ATOM     40  CG  ARG A   1       5.879  -4.162  24.988  0.00  0.00    +0.039 C 
BRANCH  40  41
ATOM     41  CD  ARG A   1       6.858  -3.537  25.976  0.00  0.00    +0.196 C 
BRANCH  41  42
ATOM     42  NE  ARG A   1       8.237  -3.933  25.658  0.00  0.00    -0.279 N 
ATOM     43  CZ  ARG A   1       8.837  -5.038  26.118  0.00  0.00    +0.341 C 
ATOM     44  NH2 ARG A   1       8.222  -5.878  26.955  0.00  0.00    -0.292 N 
ATOM     45 HH21 ARG A   1       7.273  -5.710  27.261  0.00  0.00    +0.255 HD
ATOM     46 HH22 ARG A   1       8.678  -6.714  27.293  0.00  0.00    +0.255 HD
ATOM     47  NH1 ARG A   1      10.080  -5.322  25.736  0.00  0.00    -0.292 N 
ATOM     48 HH11 ARG A   1      10.589  -6.123  26.076  0.00  0.00    +0.255 HD
ATOM     49 HH12 ARG A   1      10.541  -4.765  25.005  0.00  0.00    +0.255 HD
ATOM     50  HE  ARG A   1       8.795  -3.343  25.045  0.00  0.00    +0.258 HD
ENDBRANCH  41  42
ENDBRANCH  40  41
ENDBRANCH  39  40
ENDBRANCH  35  39
ENDBRANCH  31  35
ENDBRANCH  30  33
BRANCH  30  51
ATOM     51  CB  LEU A   2       8.718  -0.621  20.938  0.00  0.00    +0.034 C 
BRANCH  51  52
ATOM     52  CG  LEU A   2       7.392   0.033  20.495  0.00  0.00    -0.015 C 
ATOM     53  CD2 LEU A   2       7.321   0.224  18.979  0.00  0.00    +0.007 C 
ATOM     54  CD1 LEU A   2       7.217   1.383  21.193  0.00  0.00    +0.007 C 
ENDBRANCH  51  52
ENDBRANCH  30  51
ENDBRANCH  26  30
ENDBRANCH   1  27
BRANCH   1  55
ATOM     55  CB  GLN A   3      10.897   0.768  24.885  0.00  0.00    +0.041 C 
BRANCH  55  56
ATOM     56  CG  GLN A   3      10.803   1.497  23.547  0.00  0.00    +0.098 C 
BRANCH  56  57
ATOM     57  CD  GLN A   3      10.190   2.862  23.767  0.00  0.00    +0.211 C 
ATOM     58  NE2 GLN A   3      10.845   3.893  23.168  0.00  0.00    -0.329 N 
ATOM     59 HE21 GLN A   3      11.622   3.754  22.531  0.00  0.00    +0.145 HD
ATOM     60 HE22 GLN A   3      10.494   4.838  23.264  0.00  0.00    +0.145 HD
ATOM     61  OE1 GLN A   3       9.215   3.055  24.494  0.00  0.00    -0.276 OA
ENDBRANCH  56  57
ENDBRANCH  55  56
ENDBRANCH   1  55
TORSDOF 23
ENDMDL
MODEL 3
REMARK VINA RESULT:      -6.4      2.282      5.827
REMARK  Name = RLQAGN-mmff94.pdb
REMARK  26 active torsions:
REMARK  status: ('A' for Active; 'I' for Inactive)
REMARK    1  A    between atoms: _1  and  _2
REMARK    2  A    between atoms: _2  and  _3
REMARK    3  A    between atoms: _2  and  _5
REMARK    4  A    between atoms: _5  and  _6
REMARK    5  A    between atoms: _6  and  _7
REMARK    6  A    between atoms: _7  and  _8
REMARK    7  A    between atoms: _25  and  _26
REMARK    8  A    between atoms: _26  and  _27
REMARK    9  A    between atoms: _26  and  _29
REMARK   10  A    between atoms: _29  and  _30
REMARK   11  A    between atoms: _30  and  _31
REMARK   12  A    between atoms: _30  and  _32
REMARK   13  A    between atoms: _44  and  _45
REMARK   14  A    between atoms: _45  and  _46
REMARK   15  A    between atoms: _45  and  _48
REMARK   16  A    between atoms: _48  and  _49
REMARK   17  A    between atoms: _49  and  _50
REMARK   18  A    between atoms: _61  and  _62
REMARK   19  A    between atoms: _62  and  _63
REMARK   20  A    between atoms: _62  and  _65
REMARK   21  A    between atoms: _71  and  _72
REMARK   22  A    between atoms: _72  and  _73
REMARK   23  A    between atoms: _78  and  _79
REMARK   24  A    between atoms: _79  and  _80
REMARK   25  A    between atoms: _79  and  _82
REMARK   26  A    between atoms: _82  and  _83
REMARK                            x       y       z     vdW  Elec       q    Type
REMARK                         _______ _______ _______ _____ _____    ______ ____
ROOT
ATOM      1  CA  GLN A   3       7.185   0.634  21.563  0.00  0.00    +0.159 C 
ENDROOT
BRANCH   1   2
ATOM      2  C   GLN A   3       6.766   1.530  22.744  0.00  0.00    +0.234 C 
ATOM      3  O   GLN A   3       7.279   2.636  22.921  0.00  0.00    -0.274 OA
ATOM      4  N   ALA A   4       5.826   1.004  23.592  0.00  0.00    -0.303 N 
ATOM      5  H   ALA A   4       5.361   0.123  23.392  0.00  0.00    +0.149 HD
BRANCH   4   6
ATOM      6  CA  ALA A   4       5.302   1.761  24.729  0.00  0.00    +0.156 C 
ATOM      7  CB  ALA A   4       4.259   2.782  24.278  0.00  0.00    +0.038 C 
BRANCH   6   8
ATOM      8  C   ALA A   4       4.679   0.767  25.728  0.00  0.00    +0.233 C 
ATOM      9  N   GLY A   5       5.378  -0.401  25.893  0.00  0.00    -0.305 N 
ATOM     10  H   GLY A   5       6.194  -0.609  25.323  0.00  0.00    +0.149 HD
ATOM     11  O   ALA A   4       3.638   1.019  26.336  0.00  0.00    -0.274 OA
BRANCH   9  12
ATOM     12  CA  GLY A   5       4.984  -1.415  26.855  0.00  0.00    +0.200 C 
BRANCH  12  13
ATOM     13  C   GLY A   5       4.557  -2.679  26.109  0.00  0.00    +0.231 C 
ATOM     14  O   GLY A   5       4.261  -2.674  24.914  0.00  0.00    -0.274 OA
ATOM     15  N   ASN A   6       4.507  -3.814  26.879  0.00  0.00    -0.304 N 
ATOM     16  H   ASN A   6       4.670  -3.763  27.883  0.00  0.00    +0.149 HD
BRANCH  15  17
ATOM     17  CA  ASN A   6       4.136  -5.117  26.336  0.00  0.00    +0.145 C 
BRANCH  17  18
ATOM     18  C   ASN A   6       2.927  -5.608  27.121  0.00  0.00    +0.245 C 
ATOM     19  O   ASN A   6       2.854  -5.570  28.348  0.00  0.00    -0.299 OA
ENDBRANCH  17  18
BRANCH  17  20
ATOM     20  CB  ASN A   6       5.244  -6.154  26.463  0.00  0.00    +0.125 C 
BRANCH  20  21
ATOM     21  CG  ASN A   6       5.851  -6.251  27.841  0.00  0.00    +0.213 C 
ATOM     22  ND2 ASN A   6       5.570  -7.377  28.557  0.00  0.00    -0.329 N 
ATOM     23 HD21 ASN A   6       6.064  -7.432  29.441  0.00  0.00    +0.145 HD
ATOM     24 HD22 ASN A   6       5.478  -8.267  28.085  0.00  0.00    +0.145 HD
ATOM     25  OD1 ASN A   6       6.515  -5.347  28.336  0.00  0.00    -0.276 OA
ENDBRANCH  20  21
ENDBRANCH  17  20
ENDBRANCH  15  17
ENDBRANCH  12  13
ENDBRANCH   9  12
ENDBRANCH   6   8
ENDBRANCH   4   6
ENDBRANCH   1   2
BRANCH   1  27
ATOM     26  C   LEU A   2       7.861  -1.737  21.935  0.00  0.00    +0.234 C 
ATOM     27  N   GLN A   3       6.919  -0.740  21.988  0.00  0.00    -0.302 N 
ATOM     28  H   GLN A   3       5.967  -0.940  22.294  0.00  0.00    +0.150 HD
ATOM     29  O   LEU A   2       8.999  -1.546  21.504  0.00  0.00    -0.274 OA
BRANCH  26  30
ATOM     30  CA  LEU A   2       7.375  -3.117  22.438  0.00  0.00    +0.159 C 
BRANCH  30  33
ATOM     31  C   ARG A   1       8.459  -3.212  24.662  0.00  0.00    +0.230 C 
ATOM     32  O   ARG A   1       9.536  -3.593  24.212  0.00  0.00    -0.274 OA
ATOM     33  N   LEU A   2       7.329  -3.055  23.896  0.00  0.00    -0.303 N 
ATOM     34  H   LEU A   2       6.546  -2.544  24.288  0.00  0.00    +0.149 HD
BRANCH  31  35
ATOM     35  CA  ARG A   1       8.270  -2.849  26.149  0.00  0.00    +0.138 C 
BRANCH  35  36
ATOM     36  N   ARG A   1       8.805  -3.937  26.983  0.00  0.00    -0.320 NA
ATOM     37  H1  ARG A   1       8.109  -4.683  27.043  0.00  0.00    +0.119 HD
ATOM     38  H2  ARG A   1       9.588  -4.366  26.479  0.00  0.00    +0.119 HD
ENDBRANCH  35  36
BRANCH  35  39
ATOM     39  CB  ARG A   1       9.018  -1.546  26.465  0.00  0.00    +0.031 C 
BRANCH  39  40
ATOM     40  CG  ARG A   1       8.801  -0.475  25.390  0.00  0.00    +0.039 C 
BRANCH  40  41
ATOM     41  CD  ARG A   1      10.123   0.092  24.886  0.00  0.00    +0.196 C 
BRANCH  41  42
ATOM     42  NE  ARG A   1       9.989   0.560  23.499  0.00  0.00    -0.279 N 
ATOM     43  CZ  ARG A   1      10.388   1.760  23.059  0.00  0.00    +0.341 C 
ATOM     44  NH2 ARG A   1      10.925   2.669  23.878  0.00  0.00    -0.292 N 
ATOM     45 HH21 ARG A   1      11.058   2.473  24.861  0.00  0.00    +0.255 HD
ATOM     46 HH22 ARG A   1      11.230   3.570  23.538  0.00  0.00    +0.255 HD
ATOM     47  NH1 ARG A   1      10.254   2.069  21.771  0.00  0.00    -0.292 N 
ATOM     48 HH11 ARG A   1      10.509   2.968  21.394  0.00  0.00    +0.255 HD
ATOM     49 HH12 ARG A   1       9.956   1.356  21.092  0.00  0.00    +0.255 HD
ATOM     50  HE  ARG A   1       9.570  -0.054  22.805  0.00  0.00    +0.258 HD
ENDBRANCH  41  42
ENDBRANCH  40  41
ENDBRANCH  39  40
ENDBRANCH  35  39
ENDBRANCH  31  35
ENDBRANCH  30  33
BRANCH  30  51
ATOM     51  CB  LEU A   2       5.994  -3.465  21.868  0.00  0.00    +0.034 C 
BRANCH  51  52
ATOM     52  CG  LEU A   2       5.773  -4.977  21.649  0.00  0.00    -0.015 C 
ATOM     53  CD2 LEU A   2       4.902  -5.597  22.743  0.00  0.00    +0.007 C 
ATOM     54  CD1 LEU A   2       7.121  -5.698  21.593  0.00  0.00    +0.007 C 
ENDBRANCH  51  52
ENDBRANCH  30  51
ENDBRANCH  26  30
ENDBRANCH   1  27
BRANCH   1  55
ATOM     55  CB  GLN A   3       6.380   0.969  20.300  0.00  0.00    +0.041 C 
BRANCH  55  56
ATOM     56  CG  GLN A   3       7.041   0.462  19.021  0.00  0.00    +0.098 C 
BRANCH  56  57
ATOM     57  CD  GLN A   3       6.044  -0.363  18.239  0.00  0.00    +0.211 C 
ATOM     58  NE2 GLN A   3       5.589  -1.475  18.877  0.00  0.00    -0.329 N 
ATOM     59 HE21 GLN A   3       5.812  -1.683  19.845  0.00  0.00    +0.145 HD
ATOM     60 HE22 GLN A   3       4.914  -2.078  18.422  0.00  0.00    +0.145 HD
ATOM     61  OE1 GLN A   3       5.715  -0.106  17.081  0.00  0.00    -0.276 OA
ENDBRANCH  56  57
ENDBRANCH  55  56
ENDBRANCH   1  55
TORSDOF 23
ENDMDL
MODEL 4
REMARK VINA RESULT:      -6.3      1.311      2.047
REMARK  Name = RLQAGN-mmff94.pdb
REMARK  26 active torsions:
REMARK  status: ('A' for Active; 'I' for Inactive)
REMARK    1  A    between atoms: _1  and  _2
REMARK    2  A    between atoms: _2  and  _3
REMARK    3  A    between atoms: _2  and  _5
REMARK    4  A    between atoms: _5  and  _6
REMARK    5  A    between atoms: _6  and  _7
REMARK    6  A    between atoms: _7  and  _8
REMARK    7  A    between atoms: _25  and  _26
REMARK    8  A    between atoms: _26  and  _27
REMARK    9  A    between atoms: _26  and  _29
REMARK   10  A    between atoms: _29  and  _30
REMARK   11  A    between atoms: _30  and  _31
REMARK   12  A    between atoms: _30  and  _32
REMARK   13  A    between atoms: _44  and  _45
REMARK   14  A    between atoms: _45  and  _46
REMARK   15  A    between atoms: _45  and  _48
REMARK   16  A    between atoms: _48  and  _49
REMARK   17  A    between atoms: _49  and  _50
REMARK   18  A    between atoms: _61  and  _62
REMARK   19  A    between atoms: _62  and  _63
REMARK   20  A    between atoms: _62  and  _65
REMARK   21  A    between atoms: _71  and  _72
REMARK   22  A    between atoms: _72  and  _73
REMARK   23  A    between atoms: _78  and  _79
REMARK   24  A    between atoms: _79  and  _80
REMARK   25  A    between atoms: _79  and  _82
REMARK   26  A    between atoms: _82  and  _83
REMARK                            x       y       z     vdW  Elec       q    Type
REMARK                         _______ _______ _______ _____ _____    ______ ____
ROOT
ATOM      1  CA  GLN A   3       9.020  -3.790  23.979  0.00  0.00    +0.159 C 
ENDROOT
BRANCH   1   2
ATOM      2  C   GLN A   3       7.727  -3.807  23.141  0.00  0.00    +0.234 C 
ATOM      3  O   GLN A   3       7.424  -2.861  22.413  0.00  0.00    -0.274 OA
ATOM      4  N   ALA A   4       6.931  -4.913  23.289  0.00  0.00    -0.303 N 
ATOM      5  H   ALA A   4       7.230  -5.715  23.836  0.00  0.00    +0.149 HD
BRANCH   4   6
ATOM      6  CA  ALA A   4       5.696  -5.085  22.522  0.00  0.00    +0.156 C 
ATOM      7  CB  ALA A   4       5.968  -5.779  21.189  0.00  0.00    +0.038 C 
BRANCH   6   8
ATOM      8  C   ALA A   4       4.712  -5.917  23.367  0.00  0.00    +0.233 C 
ATOM      9  N   GLY A   5       5.153  -6.229  24.627  0.00  0.00    -0.305 N 
ATOM     10  H   GLY A   5       6.096  -5.994  24.926  0.00  0.00    +0.149 HD
ATOM     11  O   ALA A   4       3.610  -6.259  22.936  0.00  0.00    -0.274 OA
BRANCH   9  12
ATOM     12  CA  GLY A   5       4.325  -6.932  25.589  0.00  0.00    +0.200 C 
BRANCH  12  13
ATOM     13  C   GLY A   5       3.491  -5.919  26.373  0.00  0.00    +0.231 C 
ATOM     14  O   GLY A   5       2.370  -5.564  26.012  0.00  0.00    -0.274 OA
ATOM     15  N   ASN A   6       4.100  -5.419  27.498  0.00  0.00    -0.304 N 
ATOM     16  H   ASN A   6       5.063  -5.667  27.717  0.00  0.00    +0.149 HD
BRANCH  15  17
ATOM     17  CA  ASN A   6       3.450  -4.454  28.380  0.00  0.00    +0.145 C 
BRANCH  17  18
ATOM     18  C   ASN A   6       4.030  -3.084  28.058  0.00  0.00    +0.245 C 
ATOM     19  O   ASN A   6       3.825  -2.082  28.742  0.00  0.00    -0.299 OA
ENDBRANCH  17  18
BRANCH  17  20
ATOM     20  CB  ASN A   6       3.687  -4.740  29.857  0.00  0.00    +0.125 C 
BRANCH  20  21
ATOM     21  CG  ASN A   6       4.807  -5.714  30.130  0.00  0.00    +0.213 C 
ATOM     22  ND2 ASN A   6       4.449  -6.950  30.580  0.00  0.00    -0.329 N 
ATOM     23 HD21 ASN A   6       5.227  -7.593  30.671  0.00  0.00    +0.145 HD
ATOM     24 HD22 ASN A   6       3.599  -7.385  30.244  0.00  0.00    +0.145 HD
ATOM     25  OD1 ASN A   6       5.990  -5.410  30.019  0.00  0.00    -0.276 OA
ENDBRANCH  20  21
ENDBRANCH  17  20
ENDBRANCH  15  17
ENDBRANCH  12  13
ENDBRANCH   9  12
ENDBRANCH   6   8
ENDBRANCH   4   6
ENDBRANCH   1   2
BRANCH   1  27
ATOM     26  C   LEU A   2       9.553  -1.402  24.459  0.00  0.00    +0.234 C 
ATOM     27  N   GLN A   3       8.947  -2.585  24.803  0.00  0.00    -0.302 N 
ATOM     28  H   GLN A   3       8.449  -2.675  25.688  0.00  0.00    +0.150 HD
ATOM     29  O   LEU A   2      10.221  -1.279  23.431  0.00  0.00    -0.274 OA
BRANCH  26  30
ATOM     30  CA  LEU A   2       9.346  -0.248  25.468  0.00  0.00    +0.159 C 
BRANCH  30  33
ATOM     31  C   ARG A   1       9.658   1.756  24.048  0.00  0.00    +0.230 C 
ATOM     32  O   ARG A   1      10.881   1.752  24.168  0.00  0.00    -0.274 OA
ATOM     33  N   LEU A   2       8.827   0.893  24.720  0.00  0.00    -0.303 N 
ATOM     34  H   LEU A   2       7.862   0.815  24.417  0.00  0.00    +0.149 HD
BRANCH  31  35
ATOM     35  CA  ARG A   1       8.926   2.730  23.103  0.00  0.00    +0.138 C 
BRANCH  35  36
ATOM     36  N   ARG A   1       9.662   4.004  23.059  0.00  0.00    -0.320 NA
ATOM     37  H1  ARG A   1       9.408   4.505  22.205  0.00  0.00    +0.119 HD
ATOM     38  H2  ARG A   1       9.305   4.601  23.813  0.00  0.00    +0.119 HD
ENDBRANCH  35  36
BRANCH  35  39
ATOM     39  CB  ARG A   1       8.857   2.131  21.691  0.00  0.00    +0.031 C 
BRANCH  39  40
ATOM     40  CG  ARG A   1       7.832   0.997  21.589  0.00  0.00    +0.039 C 
BRANCH  40  41
ATOM     41  CD  ARG A   1       8.231  -0.030  20.535  0.00  0.00    +0.196 C 
BRANCH  41  42
ATOM     42  NE  ARG A   1       7.403   0.119  19.329  0.00  0.00    -0.279 N 
ATOM     43  CZ  ARG A   1       6.246  -0.522  19.117  0.00  0.00    +0.341 C 
ATOM     44  NH2 ARG A   1       5.754  -1.398  19.996  0.00  0.00    -0.292 N 
ATOM     45 HH21 ARG A   1       6.237  -1.600  20.861  0.00  0.00    +0.255 HD
ATOM     46 HH22 ARG A   1       4.877  -1.873  19.833  0.00  0.00    +0.255 HD
ATOM     47  NH1 ARG A   1       5.556  -0.285  18.004  0.00  0.00    -0.292 N 
ATOM     48 HH11 ARG A   1       4.696  -0.761  17.781  0.00  0.00    +0.255 HD
ATOM     49 HH12 ARG A   1       5.842   0.467  17.363  0.00  0.00    +0.255 HD
ATOM     50  HE  ARG A   1       7.708   0.748  18.591  0.00  0.00    +0.258 HD
ENDBRANCH  41  42
ENDBRANCH  40  41
ENDBRANCH  39  40
ENDBRANCH  35  39
ENDBRANCH  31  35
ENDBRANCH  30  33
BRANCH  30  51
ATOM     51  CB  LEU A   2       8.376  -0.651  26.586  0.00  0.00    +0.034 C 
BRANCH  51  52
ATOM     52  CG  LEU A   2       6.997   0.036  26.491  0.00  0.00    -0.015 C 
ATOM     53  CD2 LEU A   2       6.459   0.442  27.864  0.00  0.00    +0.007 C 
ATOM     54  CD1 LEU A   2       5.998  -0.894  25.801  0.00  0.00    +0.007 C 
ENDBRANCH  51  52
ENDBRANCH  30  51
ENDBRANCH  26  30
ENDBRANCH   1  27
BRANCH   1  55
ATOM     55  CB  GLN A   3       9.124  -5.039  24.863  0.00  0.00    +0.041 C 
BRANCH  55  56
ATOM     56  CG  GLN A   3       9.033  -4.722  26.354  0.00  0.00    +0.098 C 
BRANCH  56  57
ATOM     57  CD  GLN A   3       7.623  -4.989  26.833  0.00  0.00    +0.211 C 
ATOM     58  NE2 GLN A   3       7.478  -6.092  27.615  0.00  0.00    -0.329 N 
ATOM     59 HE21 GLN A   3       8.267  -6.638  27.947  0.00  0.00    +0.145 HD
ATOM     60 HE22 GLN A   3       6.566  -6.336  27.981  0.00  0.00    +0.145 HD
ATOM     61  OE1 GLN A   3       6.653  -4.313  26.488  0.00  0.00    -0.276 OA
ENDBRANCH  56  57
ENDBRANCH  55  56
ENDBRANCH   1  55
TORSDOF 23
ENDMDL
MODEL 5
REMARK VINA RESULT:      -6.3      2.409      4.657
REMARK  Name = RLQAGN-mmff94.pdb
REMARK  26 active torsions:
REMARK  status: ('A' for Active; 'I' for Inactive)
REMARK    1  A    between atoms: _1  and  _2
REMARK    2  A    between atoms: _2  and  _3
REMARK    3  A    between atoms: _2  and  _5
REMARK    4  A    between atoms: _5  and  _6
REMARK    5  A    between atoms: _6  and  _7
REMARK    6  A    between atoms: _7  and  _8
REMARK    7  A    between atoms: _25  and  _26
REMARK    8  A    between atoms: _26  and  _27
REMARK    9  A    between atoms: _26  and  _29
REMARK   10  A    between atoms: _29  and  _30
REMARK   11  A    between atoms: _30  and  _31
REMARK   12  A    between atoms: _30  and  _32
REMARK   13  A    between atoms: _44  and  _45
REMARK   14  A    between atoms: _45  and  _46
REMARK   15  A    between atoms: _45  and  _48
REMARK   16  A    between atoms: _48  and  _49
REMARK   17  A    between atoms: _49  and  _50
REMARK   18  A    between atoms: _61  and  _62
REMARK   19  A    between atoms: _62  and  _63
REMARK   20  A    between atoms: _62  and  _65
REMARK   21  A    between atoms: _71  and  _72
REMARK   22  A    between atoms: _72  and  _73
REMARK   23  A    between atoms: _78  and  _79
REMARK   24  A    between atoms: _79  and  _80
REMARK   25  A    between atoms: _79  and  _82
REMARK   26  A    between atoms: _82  and  _83
REMARK                            x       y       z     vdW  Elec       q    Type
REMARK                         _______ _______ _______ _____ _____    ______ ____
ROOT
ATOM      1  CA  GLN A   3       6.753  -0.807  21.241  0.00  0.00    +0.159 C 
ENDROOT
BRANCH   1   2
ATOM      2  C   GLN A   3       6.254  -2.254  21.065  0.00  0.00    +0.234 C 
ATOM      3  O   GLN A   3       5.558  -2.578  20.102  0.00  0.00    -0.274 OA
ATOM      4  N   ALA A   4       6.600  -3.134  22.058  0.00  0.00    -0.303 N 
ATOM      5  H   ALA A   4       7.234  -2.869  22.807  0.00  0.00    +0.149 HD
BRANCH   4   6
ATOM      6  CA  ALA A   4       6.234  -4.549  22.000  0.00  0.00    +0.156 C 
ATOM      7  CB  ALA A   4       7.329  -5.427  22.600  0.00  0.00    +0.038 C 
BRANCH   6   8
ATOM      8  C   ALA A   4       4.913  -4.741  22.770  0.00  0.00    +0.233 C 
ATOM      9  N   GLY A   5       4.379  -6.002  22.697  0.00  0.00    -0.305 N 
ATOM     10  H   GLY A   5       4.795  -6.714  22.103  0.00  0.00    +0.149 HD
ATOM     11  O   ALA A   4       4.392  -3.826  23.410  0.00  0.00    -0.274 OA
BRANCH   9  12
ATOM     12  CA  GLY A   5       3.185  -6.385  23.429  0.00  0.00    +0.200 C 
BRANCH  12  13
ATOM     13  C   GLY A   5       3.550  -6.635  24.893  0.00  0.00    +0.231 C 
ATOM     14  O   GLY A   5       4.051  -7.690  25.278  0.00  0.00    -0.274 OA
ATOM     15  N   ASN A   6       3.255  -5.600  25.746  0.00  0.00    -0.304 N 
ATOM     16  H   ASN A   6       2.758  -4.778  25.407  0.00  0.00    +0.149 HD
BRANCH  15  17
ATOM     17  CA  ASN A   6       3.547  -5.652  27.175  0.00  0.00    +0.145 C 
BRANCH  17  18
ATOM     18  C   ASN A   6       2.570  -4.716  27.872  0.00  0.00    +0.245 C 
ATOM     19  O   ASN A   6       1.894  -3.876  27.279  0.00  0.00    -0.299 OA
ENDBRANCH  17  18
BRANCH  17  20
ATOM     20  CB  ASN A   6       4.963  -5.204  27.512  0.00  0.00    +0.125 C 
BRANCH  20  21
ATOM     21  CG  ASN A   6       5.844  -6.293  28.075  0.00  0.00    +0.213 C 
ATOM     22  ND2 ASN A   6       5.258  -7.504  28.290  0.00  0.00    -0.329 N 
ATOM     23 HD21 ASN A   6       5.907  -8.223  28.591  0.00  0.00    +0.145 HD
ATOM     24 HD22 ASN A   6       4.543  -7.840  27.658  0.00  0.00    +0.145 HD
ATOM     25  OD1 ASN A   6       7.014  -6.101  28.388  0.00  0.00    -0.276 OA
ENDBRANCH  20  21
ENDBRANCH  17  20
ENDBRANCH  15  17
ENDBRANCH  12  13
ENDBRANCH   9  12
ENDBRANCH   6   8
ENDBRANCH   4   6
ENDBRANCH   1   2
BRANCH   1  27
ATOM     26  C   LEU A   2       7.886  -0.251  23.391  0.00  0.00    +0.234 C 
ATOM     27  N   GLN A   3       7.878  -0.883  22.172  0.00  0.00    -0.302 N 
ATOM     28  H   GLN A   3       8.694  -1.402  21.851  0.00  0.00    +0.150 HD
ATOM     29  O   LEU A   2       6.945   0.443  23.780  0.00  0.00    -0.274 OA
BRANCH  26  30
ATOM     30  CA  LEU A   2       9.171  -0.464  24.225  0.00  0.00    +0.159 C 
BRANCH  30  33
ATOM     31  C   ARG A   1      10.195   1.668  23.495  0.00  0.00    +0.230 C 
ATOM     32  O   ARG A   1      10.345   1.294  22.334  0.00  0.00    -0.274 OA
ATOM     33  N   LEU A   2       9.733   0.855  24.501  0.00  0.00    -0.303 N 
ATOM     34  H   LEU A   2       9.439   1.282  25.373  0.00  0.00    +0.149 HD
BRANCH  31  35
ATOM     35  CA  ARG A   1      10.496   3.114  23.939  0.00  0.00    +0.138 C 
BRANCH  35  36
ATOM     36  N   ARG A   1      11.239   3.802  22.871  0.00  0.00    -0.320 NA
ATOM     37  H1  ARG A   1      10.597   4.412  22.361  0.00  0.00    +0.119 HD
ATOM     38  H2  ARG A   1      11.901   4.450  23.313  0.00  0.00    +0.119 HD
ENDBRANCH  35  36
BRANCH  35  39
ATOM     39  CB  ARG A   1       9.182   3.859  24.210  0.00  0.00    +0.031 C 
BRANCH  39  40
ATOM     40  CG  ARG A   1       8.230   3.815  23.010  0.00  0.00    +0.039 C 
BRANCH  40  41
ATOM     41  CD  ARG A   1       6.845   4.342  23.370  0.00  0.00    +0.196 C 
BRANCH  41  42
ATOM     42  NE  ARG A   1       5.890   4.066  22.288  0.00  0.00    -0.279 N 
ATOM     43  CZ  ARG A   1       4.903   3.163  22.355  0.00  0.00    +0.341 C 
ATOM     44  NH2 ARG A   1       4.724   2.394  23.433  0.00  0.00    -0.292 N 
ATOM     45 HH21 ARG A   1       5.326   2.477  24.241  0.00  0.00    +0.255 HD
ATOM     46 HH22 ARG A   1       3.974   1.720  23.479  0.00  0.00    +0.255 HD
ATOM     47  NH1 ARG A   1       4.068   3.020  21.328  0.00  0.00    -0.292 N 
ATOM     48 HH11 ARG A   1       3.329   2.335  21.315  0.00  0.00    +0.255 HD
ATOM     49 HH12 ARG A   1       4.102   3.673  20.534  0.00  0.00    +0.255 HD
ATOM     50  HE  ARG A   1       5.960   4.587  21.417  0.00  0.00    +0.258 HD
ENDBRANCH  41  42
ENDBRANCH  40  41
ENDBRANCH  39  40
ENDBRANCH  35  39
ENDBRANCH  31  35
ENDBRANCH  30  33
BRANCH  30  51
ATOM     51  CB  LEU A   2       8.872  -1.209  25.532  0.00  0.00    +0.034 C 
BRANCH  51  52
ATOM     52  CG  LEU A   2       8.524  -2.700  25.335  0.00  0.00    -0.015 C 
ATOM     53  CD2 LEU A   2       8.403  -3.446  26.665  0.00  0.00    +0.007 C 
ATOM     54  CD1 LEU A   2       9.587  -3.372  24.463  0.00  0.00    +0.007 C 
ENDBRANCH  51  52
ENDBRANCH  30  51
ENDBRANCH  26  30
ENDBRANCH   1  27
BRANCH   1  55
ATOM     55  CB  GLN A   3       7.206  -0.210  19.902  0.00  0.00    +0.041 C 
BRANCH  55  56
ATOM     56  CG  GLN A   3       6.297   0.915  19.415  0.00  0.00    +0.098 C 
BRANCH  56  57
ATOM     57  CD  GLN A   3       5.957   0.685  17.959  0.00  0.00    +0.211 C 
ATOM     58  NE2 GLN A   3       5.480  -0.555  17.667  0.00  0.00    -0.329 N 
ATOM     59 HE21 GLN A   3       5.262  -1.242  18.381  0.00  0.00    +0.145 HD
ATOM     60 HE22 GLN A   3       5.224  -0.785  16.714  0.00  0.00    +0.145 HD
ATOM     61  OE1 GLN A   3       6.162   1.520  17.078  0.00  0.00    -0.276 OA
ENDBRANCH  56  57
ENDBRANCH  55  56
ENDBRANCH   1  55
TORSDOF 23
ENDMDL
MODEL 6
REMARK VINA RESULT:      -6.2      1.397      2.443
REMARK  Name = RLQAGN-mmff94.pdb
REMARK  26 active torsions:
REMARK  status: ('A' for Active; 'I' for Inactive)
REMARK    1  A    between atoms: _1  and  _2
REMARK    2  A    between atoms: _2  and  _3
REMARK    3  A    between atoms: _2  and  _5
REMARK    4  A    between atoms: _5  and  _6
REMARK    5  A    between atoms: _6  and  _7
REMARK    6  A    between atoms: _7  and  _8
REMARK    7  A    between atoms: _25  and  _26
REMARK    8  A    between atoms: _26  and  _27
REMARK    9  A    between atoms: _26  and  _29
REMARK   10  A    between atoms: _29  and  _30
REMARK   11  A    between atoms: _30  and  _31
REMARK   12  A    between atoms: _30  and  _32
REMARK   13  A    between atoms: _44  and  _45
REMARK   14  A    between atoms: _45  and  _46
REMARK   15  A    between atoms: _45  and  _48
REMARK   16  A    between atoms: _48  and  _49
REMARK   17  A    between atoms: _49  and  _50
REMARK   18  A    between atoms: _61  and  _62
REMARK   19  A    between atoms: _62  and  _63
REMARK   20  A    between atoms: _62  and  _65
REMARK   21  A    between atoms: _71  and  _72
REMARK   22  A    between atoms: _72  and  _73
REMARK   23  A    between atoms: _78  and  _79
REMARK   24  A    between atoms: _79  and  _80
REMARK   25  A    between atoms: _79  and  _82
REMARK   26  A    between atoms: _82  and  _83
REMARK                            x       y       z     vdW  Elec       q    Type
REMARK                         _______ _______ _______ _____ _____    ______ ____
ROOT
ATOM      1  CA  GLN A   3       8.995  -3.853  24.062  0.00  0.00    +0.159 C 
ENDROOT
BRANCH   1   2
ATOM      2  C   GLN A   3       7.828  -3.818  23.057  0.00  0.00    +0.234 C 
ATOM      3  O   GLN A   3       7.665  -2.862  22.298  0.00  0.00    -0.274 OA
ATOM      4  N   ALA A   4       6.974  -4.890  23.092  0.00  0.00    -0.303 N 
ATOM      5  H   ALA A   4       7.163  -5.703  23.672  0.00  0.00    +0.149 HD
BRANCH   4   6
ATOM      6  CA  ALA A   4       5.848  -5.013  22.164  0.00  0.00    +0.156 C 
ATOM      7  CB  ALA A   4       6.176  -5.975  21.025  0.00  0.00    +0.038 C 
BRANCH   6   8
ATOM      8  C   ALA A   4       4.623  -5.514  22.952  0.00  0.00    +0.233 C 
ATOM      9  N   GLY A   5       4.789  -6.728  23.569  0.00  0.00    -0.305 N 
ATOM     10  H   GLY A   5       5.635  -7.275  23.430  0.00  0.00    +0.149 HD
ATOM     11  O   ALA A   4       3.582  -4.860  23.025  0.00  0.00    -0.274 OA
BRANCH   9  12
ATOM     12  CA  GLY A   5       3.771  -7.313  24.422  0.00  0.00    +0.200 C 
BRANCH  12  13
ATOM     13  C   GLY A   5       3.913  -6.748  25.836  0.00  0.00    +0.231 C 
ATOM     14  O   GLY A   5       4.736  -7.181  26.642  0.00  0.00    -0.274 OA
ATOM     15  N   ASN A   6       3.036  -5.737  26.143  0.00  0.00    -0.304 N 
ATOM     16  H   ASN A   6       2.309  -5.466  25.484  0.00  0.00    +0.149 HD
BRANCH  15  17
ATOM     17  CA  ASN A   6       3.034  -5.066  27.440  0.00  0.00    +0.145 C 
BRANCH  17  18
ATOM     18  C   ASN A   6       1.814  -5.559  28.204  0.00  0.00    +0.245 C 
ATOM     19  O   ASN A   6       1.670  -6.723  28.575  0.00  0.00    -0.299 OA
ENDBRANCH  17  18
BRANCH  17  20
ATOM     20  CB  ASN A   6       2.949  -3.549  27.327  0.00  0.00    +0.125 C 
BRANCH  20  21
ATOM     21  CG  ASN A   6       2.846  -3.035  25.911  0.00  0.00    +0.213 C 
ATOM     22  ND2 ASN A   6       4.018  -2.759  25.273  0.00  0.00    -0.329 N 
ATOM     23 HD21 ASN A   6       3.901  -2.495  24.301  0.00  0.00    +0.145 HD
ATOM     24 HD22 ASN A   6       4.835  -3.331  25.444  0.00  0.00    +0.145 HD
ATOM     25  OD1 ASN A   6       1.771  -2.812  25.366  0.00  0.00    -0.276 OA
ENDBRANCH  20  21
ENDBRANCH  17  20
ENDBRANCH  15  17
ENDBRANCH  12  13
ENDBRANCH   9  12
ENDBRANCH   6   8
ENDBRANCH   4   6
ENDBRANCH   1   2
BRANCH   1  27
ATOM     26  C   LEU A   2       9.686  -1.509  24.561  0.00  0.00    +0.234 C 
ATOM     27  N   GLN A   3       8.904  -2.608  24.824  0.00  0.00    -0.302 N 
ATOM     28  H   GLN A   3       8.249  -2.604  25.605  0.00  0.00    +0.150 HD
ATOM     29  O   LEU A   2      10.537  -1.504  23.670  0.00  0.00    -0.274 OA
BRANCH  26  30
ATOM     30  CA  LEU A   2       9.426  -0.293  25.481  0.00  0.00    +0.159 C 
BRANCH  30  33
ATOM     31  C   ARG A   1       9.765   1.653  23.989  0.00  0.00    +0.230 C 
ATOM     32  O   ARG A   1      10.973   1.711  24.202  0.00  0.00    -0.274 OA
ATOM     33  N   LEU A   2       8.920   0.787  24.639  0.00  0.00    -0.303 N 
ATOM     34  H   LEU A   2       7.986   0.651  24.268  0.00  0.00    +0.149 HD
BRANCH  31  35
ATOM     35  CA  ARG A   1       9.070   2.547  22.943  0.00  0.00    +0.138 C 
BRANCH  35  36
ATOM     36  N   ARG A   1       9.766   2.412  21.653  0.00  0.00    -0.320 NA
ATOM     37  H1  ARG A   1      10.314   3.257  21.481  0.00  0.00    +0.119 HD
ATOM     38  H2  ARG A   1      10.472   1.673  21.751  0.00  0.00    +0.119 HD
ENDBRANCH  35  36
BRANCH  35  39
ATOM     39  CB  ARG A   1       7.605   2.116  22.781  0.00  0.00    +0.031 C 
BRANCH  39  40
ATOM     40  CG  ARG A   1       7.439   0.997  21.747  0.00  0.00    +0.039 C 
BRANCH  40  41
ATOM     41  CD  ARG A   1       6.370   1.337  20.716  0.00  0.00    +0.196 C 
BRANCH  41  42
ATOM     42  NE  ARG A   1       6.092   0.176  19.857  0.00  0.00    -0.279 N 
ATOM     43  CZ  ARG A   1       5.775   0.249  18.558  0.00  0.00    +0.341 C 
ATOM     44  NH2 ARG A   1       5.650   1.420  17.928  0.00  0.00    -0.292 N 
ATOM     45 HH21 ARG A   1       5.802   2.294  18.412  0.00  0.00    +0.255 HD
ATOM     46 HH22 ARG A   1       5.417   1.468  16.946  0.00  0.00    +0.255 HD
ATOM     47  NH1 ARG A   1       5.580  -0.869  17.863  0.00  0.00    -0.292 N 
ATOM     48 HH11 ARG A   1       5.309  -0.870  16.892  0.00  0.00    +0.255 HD
ATOM     49 HH12 ARG A   1       5.782  -1.786  18.282  0.00  0.00    +0.255 HD
ATOM     50  HE  ARG A   1       6.140  -0.759  20.254  0.00  0.00    +0.258 HD
ENDBRANCH  41  42
ENDBRANCH  40  41
ENDBRANCH  39  40
ENDBRANCH  35  39
ENDBRANCH  31  35
ENDBRANCH  30  33
BRANCH  30  51
ATOM     51  CB  LEU A   2       8.420  -0.634  26.588  0.00  0.00    +0.034 C 
BRANCH  51  52
ATOM     52  CG  LEU A   2       7.350   0.454  26.815  0.00  0.00    -0.015 C 
ATOM     53  CD2 LEU A   2       7.258   0.877  28.282  0.00  0.00    +0.007 C 
ATOM     54  CD1 LEU A   2       5.986  -0.047  26.336  0.00  0.00    +0.007 C 
ENDBRANCH  51  52
ENDBRANCH  30  51
ENDBRANCH  26  30
ENDBRANCH   1  27
BRANCH   1  55
ATOM     55  CB  GLN A   3       8.884  -5.063  24.999  0.00  0.00    +0.041 C 
BRANCH  55  56
ATOM     56  CG  GLN A   3       8.674  -4.669  26.458  0.00  0.00    +0.098 C 
BRANCH  56  57
ATOM     57  CD  GLN A   3       7.211  -4.825  26.809  0.00  0.00    +0.211 C 
ATOM     58  NE2 GLN A   3       6.937  -5.794  27.724  0.00  0.00    -0.329 N 
ATOM     59 HE21 GLN A   3       7.661  -6.302  28.219  0.00  0.00    +0.145 HD
ATOM     60 HE22 GLN A   3       5.981  -5.956  28.015  0.00  0.00    +0.145 HD
ATOM     61  OE1 GLN A   3       6.313  -4.184  26.262  0.00  0.00    -0.276 OA
ENDBRANCH  56  57
ENDBRANCH  55  56
ENDBRANCH   1  55
TORSDOF 23
ENDMDL
MODEL 7
REMARK VINA RESULT:      -6.2      3.164      7.023
REMARK  Name = RLQAGN-mmff94.pdb
REMARK  26 active torsions:
REMARK  status: ('A' for Active; 'I' for Inactive)
REMARK    1  A    between atoms: _1  and  _2
REMARK    2  A    between atoms: _2  and  _3
REMARK    3  A    between atoms: _2  and  _5
REMARK    4  A    between atoms: _5  and  _6
REMARK    5  A    between atoms: _6  and  _7
REMARK    6  A    between atoms: _7  and  _8
REMARK    7  A    between atoms: _25  and  _26
REMARK    8  A    between atoms: _26  and  _27
REMARK    9  A    between atoms: _26  and  _29
REMARK   10  A    between atoms: _29  and  _30
REMARK   11  A    between atoms: _30  and  _31
REMARK   12  A    between atoms: _30  and  _32
REMARK   13  A    between atoms: _44  and  _45
REMARK   14  A    between atoms: _45  and  _46
REMARK   15  A    between atoms: _45  and  _48
REMARK   16  A    between atoms: _48  and  _49
REMARK   17  A    between atoms: _49  and  _50
REMARK   18  A    between atoms: _61  and  _62
REMARK   19  A    between atoms: _62  and  _63
REMARK   20  A    between atoms: _62  and  _65
REMARK   21  A    between atoms: _71  and  _72
REMARK   22  A    between atoms: _72  and  _73
REMARK   23  A    between atoms: _78  and  _79
REMARK   24  A    between atoms: _79  and  _80
REMARK   25  A    between atoms: _79  and  _82
REMARK   26  A    between atoms: _82  and  _83
REMARK                            x       y       z     vdW  Elec       q    Type
REMARK                         _______ _______ _______ _____ _____    ______ ____
ROOT
ATOM      1  CA  GLN A   3       7.377   0.460  21.219  0.00  0.00    +0.159 C 
ENDROOT
BRANCH   1   2
ATOM      2  C   GLN A   3       8.673   0.068  21.955  0.00  0.00    +0.234 C 
ATOM      3  O   GLN A   3       9.780   0.276  21.456  0.00  0.00    -0.274 OA
ATOM      4  N   ALA A   4       8.512  -0.554  23.166  0.00  0.00    -0.303 N 
ATOM      5  H   ALA A   4       7.596  -0.652  23.596  0.00  0.00    +0.149 HD
BRANCH   4   6
ATOM      6  CA  ALA A   4       9.654  -0.941  23.995  0.00  0.00    +0.156 C 
ATOM      7  CB  ALA A   4      10.144   0.233  24.840  0.00  0.00    +0.038 C 
BRANCH   6   8
ATOM      8  C   ALA A   4       9.221  -2.109  24.902  0.00  0.00    +0.233 C 
ATOM      9  N   GLY A   5       9.410  -3.357  24.367  0.00  0.00    -0.305 N 
ATOM     10  H   GLY A   5       9.732  -3.474  23.409  0.00  0.00    +0.149 HD
ATOM     11  O   ALA A   4       8.752  -1.923  26.026  0.00  0.00    -0.274 OA
BRANCH   9  12
ATOM     12  CA  GLY A   5       9.138  -4.572  25.112  0.00  0.00    +0.200 C 
BRANCH  12  13
ATOM     13  C   GLY A   5       7.735  -5.071  24.768  0.00  0.00    +0.231 C 
ATOM     14  O   GLY A   5       6.956  -5.496  25.621  0.00  0.00    -0.274 OA
ATOM     15  N   ASN A   6       7.420  -5.030  23.433  0.00  0.00    -0.304 N 
ATOM     16  H   ASN A   6       8.120  -4.758  22.745  0.00  0.00    +0.149 HD
BRANCH  15  17
ATOM     17  CA  ASN A   6       6.120  -5.451  22.919  0.00  0.00    +0.145 C 
BRANCH  17  18
ATOM     18  C   ASN A   6       6.332  -5.935  21.491  0.00  0.00    +0.245 C 
ATOM     19  O   ASN A   6       5.924  -5.329  20.501  0.00  0.00    -0.299 OA
ENDBRANCH  17  18
BRANCH  17  20
ATOM     20  CB  ASN A   6       5.094  -4.324  22.895  0.00  0.00    +0.125 C 
BRANCH  20  21
ATOM     21  CG  ASN A   6       5.686  -2.947  22.722  0.00  0.00    +0.213 C 
ATOM     22  ND2 ASN A   6       5.806  -2.487  21.445  0.00  0.00    -0.329 N 
ATOM     23 HD21 ASN A   6       6.132  -1.529  21.385  0.00  0.00    +0.145 HD
ATOM     24 HD22 ASN A   6       5.106  -2.723  20.754  0.00  0.00    +0.145 HD
ATOM     25  OD1 ASN A   6       6.102  -2.283  23.666  0.00  0.00    -0.276 OA
ENDBRANCH  20  21
ENDBRANCH  17  20
ENDBRANCH  15  17
ENDBRANCH  12  13
ENDBRANCH   9  12
ENDBRANCH   6   8
ENDBRANCH   4   6
ENDBRANCH   1   2
BRANCH   1  27
ATOM     26  C   LEU A   2       6.515   2.300  22.664  0.00  0.00    +0.234 C 
ATOM     27  N   GLN A   3       7.155   1.872  21.527  0.00  0.00    -0.302 N 
ATOM     28  H   GLN A   3       7.465   2.541  20.823  0.00  0.00    +0.150 HD
ATOM     29  O   LEU A   2       6.065   1.516  23.502  0.00  0.00    -0.274 OA
BRANCH  26  30
ATOM     30  CA  LEU A   2       6.389   3.835  22.800  0.00  0.00    +0.159 C 
BRANCH  30  33
ATOM     31  C   ARG A   1       4.287   4.464  23.947  0.00  0.00    +0.230 C 
ATOM     32  O   ARG A   1       3.713   4.770  22.905  0.00  0.00    -0.274 OA
ATOM     33  N   LEU A   2       5.611   4.102  24.006  0.00  0.00    -0.303 N 
ATOM     34  H   LEU A   2       5.957   3.666  24.854  0.00  0.00    +0.149 HD
BRANCH  31  35
ATOM     35  CA  ARG A   1       3.564   4.439  25.309  0.00  0.00    +0.138 C 
BRANCH  35  36
ATOM     36  N   ARG A   1       3.066   3.078  25.565  0.00  0.00    -0.320 NA
ATOM     37  H1  ARG A   1       2.388   3.111  26.330  0.00  0.00    +0.119 HD
ATOM     38  H2  ARG A   1       2.511   2.786  24.753  0.00  0.00    +0.119 HD
ENDBRANCH  35  36
BRANCH  35  39
ATOM     39  CB  ARG A   1       4.539   4.844  26.423  0.00  0.00    +0.031 C 
BRANCH  39  40
ATOM     40  CG  ARG A   1       4.651   3.776  27.516  0.00  0.00    +0.039 C 
BRANCH  40  41
ATOM     41  CD  ARG A   1       5.961   3.003  27.416  0.00  0.00    +0.196 C 
BRANCH  41  42
ATOM     42  NE  ARG A   1       5.783   1.785  26.612  0.00  0.00    -0.279 N 
ATOM     43  CZ  ARG A   1       6.573   0.706  26.680  0.00  0.00    +0.341 C 
ATOM     44  NH2 ARG A   1       7.638   0.662  27.484  0.00  0.00    -0.292 N 
ATOM     45 HH21 ARG A   1       7.878   1.444  28.079  0.00  0.00    +0.255 HD
ATOM     46 HH22 ARG A   1       8.226  -0.158  27.535  0.00  0.00    +0.255 HD
ATOM     47  NH1 ARG A   1       6.298  -0.361  25.933  0.00  0.00    -0.292 N 
ATOM     48 HH11 ARG A   1       6.877  -1.186  25.923  0.00  0.00    +0.255 HD
ATOM     49 HH12 ARG A   1       5.424  -0.408  25.393  0.00  0.00    +0.255 HD
ATOM     50  HE  ARG A   1       5.011   1.733  25.952  0.00  0.00    +0.258 HD
ENDBRANCH  41  42
ENDBRANCH  40  41
ENDBRANCH  39  40
ENDBRANCH  35  39
ENDBRANCH  31  35
ENDBRANCH  30  33
BRANCH  30  51
ATOM     51  CB  LEU A   2       7.767   4.504  22.885  0.00  0.00    +0.034 C 
BRANCH  51  52
ATOM     52  CG  LEU A   2       8.616   4.031  24.084  0.00  0.00    -0.015 C 
ATOM     53  CD2 LEU A   2       8.787   5.125  25.139  0.00  0.00    +0.007 C 
ATOM     54  CD1 LEU A   2       9.990   3.565  23.598  0.00  0.00    +0.007 C 
ENDBRANCH  51  52
ENDBRANCH  30  51
ENDBRANCH  26  30
ENDBRANCH   1  27
BRANCH   1  55
ATOM     55  CB  GLN A   3       7.517   0.257  19.705  0.00  0.00    +0.041 C 
BRANCH  55  56
ATOM     56  CG  GLN A   3       6.199  -0.114  19.030  0.00  0.00    +0.098 C 
BRANCH  56  57
ATOM     57  CD  GLN A   3       5.473   1.151  18.629  0.00  0.00    +0.211 C 
ATOM     58  NE2 GLN A   3       5.801   1.641  17.403  0.00  0.00    -0.329 N 
ATOM     59 HE21 GLN A   3       6.404   1.143  16.756  0.00  0.00    +0.145 HD
ATOM     60 HE22 GLN A   3       5.354   2.482  17.059  0.00  0.00    +0.145 HD
ATOM     61  OE1 GLN A   3       4.695   1.748  19.374  0.00  0.00    -0.276 OA
ENDBRANCH  56  57
ENDBRANCH  55  56
ENDBRANCH   1  55
TORSDOF 23
ENDMDL
MODEL 8
REMARK VINA RESULT:      -6.1      2.368      5.223
REMARK  Name = RLQAGN-mmff94.pdb
REMARK  26 active torsions:
REMARK  status: ('A' for Active; 'I' for Inactive)
REMARK    1  A    between atoms: _1  and  _2
REMARK    2  A    between atoms: _2  and  _3
REMARK    3  A    between atoms: _2  and  _5
REMARK    4  A    between atoms: _5  and  _6
REMARK    5  A    between atoms: _6  and  _7
REMARK    6  A    between atoms: _7  and  _8
REMARK    7  A    between atoms: _25  and  _26
REMARK    8  A    between atoms: _26  and  _27
REMARK    9  A    between atoms: _26  and  _29
REMARK   10  A    between atoms: _29  and  _30
REMARK   11  A    between atoms: _30  and  _31
REMARK   12  A    between atoms: _30  and  _32
REMARK   13  A    between atoms: _44  and  _45
REMARK   14  A    between atoms: _45  and  _46
REMARK   15  A    between atoms: _45  and  _48
REMARK   16  A    between atoms: _48  and  _49
REMARK   17  A    between atoms: _49  and  _50
REMARK   18  A    between atoms: _61  and  _62
REMARK   19  A    between atoms: _62  and  _63
REMARK   20  A    between atoms: _62  and  _65
REMARK   21  A    between atoms: _71  and  _72
REMARK   22  A    between atoms: _72  and  _73
REMARK   23  A    between atoms: _78  and  _79
REMARK   24  A    between atoms: _79  and  _80
REMARK   25  A    between atoms: _79  and  _82
REMARK   26  A    between atoms: _82  and  _83
REMARK                            x       y       z     vdW  Elec       q    Type
REMARK                         _______ _______ _______ _____ _____    ______ ____
ROOT
ATOM      1  CA  GLN A   3       9.363  -0.733  25.372  0.00  0.00    +0.159 C 
ENDROOT
BRANCH   1   2
ATOM      2  C   GLN A   3       8.317   0.003  26.231  0.00  0.00    +0.234 C 
ATOM      3  O   GLN A   3       8.110  -0.319  27.402  0.00  0.00    -0.274 OA
ATOM      4  N   ALA A   4       7.617   0.999  25.602  0.00  0.00    -0.303 N 
ATOM      5  H   ALA A   4       7.850   1.300  24.660  0.00  0.00    +0.149 HD
BRANCH   4   6
ATOM      6  CA  ALA A   4       6.625   1.812  26.307  0.00  0.00    +0.156 C 
ATOM      7  CB  ALA A   4       6.562   3.225  25.732  0.00  0.00    +0.038 C 
BRANCH   6   8
ATOM      8  C   ALA A   4       5.254   1.121  26.181  0.00  0.00    +0.233 C 
ATOM      9  N   GLY A   5       4.982   0.194  27.154  0.00  0.00    -0.305 N 
ATOM     10  H   GLY A   5       5.683  -0.063  27.844  0.00  0.00    +0.149 HD
ATOM     11  O   ALA A   4       4.465   1.398  25.276  0.00  0.00    -0.274 OA
BRANCH   9  12
ATOM     12  CA  GLY A   5       3.705  -0.491  27.241  0.00  0.00    +0.200 C 
BRANCH  12  13
ATOM     13  C   GLY A   5       3.882  -1.944  26.797  0.00  0.00    +0.231 C 
ATOM     14  O   GLY A   5       3.752  -2.298  25.626  0.00  0.00    -0.274 OA
ATOM     15  N   ASN A   6       4.174  -2.824  27.810  0.00  0.00    -0.304 N 
ATOM     16  H   ASN A   6       4.185  -2.511  28.779  0.00  0.00    +0.149 HD
BRANCH  15  17
ATOM     17  CA  ASN A   6       4.393  -4.247  27.574  0.00  0.00    +0.145 C 
BRANCH  17  18
ATOM     18  C   ASN A   6       3.320  -5.005  28.343  0.00  0.00    +0.245 C 
ATOM     19  O   ASN A   6       2.875  -6.096  27.991  0.00  0.00    -0.299 OA
ENDBRANCH  17  18
BRANCH  17  20
ATOM     20  CB  ASN A   6       5.757  -4.729  28.053  0.00  0.00    +0.125 C 
BRANCH  20  21
ATOM     21  CG  ASN A   6       6.427  -5.719  27.131  0.00  0.00    +0.213 C 
ATOM     22  ND2 ASN A   6       7.789  -5.736  27.137  0.00  0.00    -0.329 N 
ATOM     23 HD21 ASN A   6       8.191  -6.470  26.564  0.00  0.00    +0.145 HD
ATOM     24 HD22 ASN A   6       8.294  -5.571  27.998  0.00  0.00    +0.145 HD
ATOM     25  OD1 ASN A   6       5.797  -6.436  26.362  0.00  0.00    -0.276 OA
ENDBRANCH  20  21
ENDBRANCH  17  20
ENDBRANCH  15  17
ENDBRANCH  12  13
ENDBRANCH   9  12
ENDBRANCH   6   8
ENDBRANCH   4   6
ENDBRANCH   1   2
BRANCH   1  27
ATOM     26  C   LEU A   2       7.995  -2.516  24.292  0.00  0.00    +0.234 C 
ATOM     27  N   GLN A   3       8.628  -1.298  24.242  0.00  0.00    -0.302 N 
ATOM     28  H   GLN A   3       8.640  -0.754  23.380  0.00  0.00    +0.150 HD
ATOM     29  O   LEU A   2       8.020  -3.231  25.295  0.00  0.00    -0.274 OA
BRANCH  26  30
ATOM     30  CA  LEU A   2       7.269  -2.924  22.989  0.00  0.00    +0.159 C 
BRANCH  30  33
ATOM     31  C   ARG A   1       6.671  -1.575  21.001  0.00  0.00    +0.230 C 
ATOM     32  O   ARG A   1       5.652  -2.219  20.768  0.00  0.00    -0.274 OA
ATOM     33  N   LEU A   2       7.568  -1.904  21.988  0.00  0.00    -0.303 N 
ATOM     34  H   LEU A   2       8.266  -1.219  22.257  0.00  0.00    +0.149 HD
BRANCH  31  35
ATOM     35  CA  ARG A   1       7.040  -0.303  20.211  0.00  0.00    +0.138 C 
BRANCH  35  36
ATOM     36  N   ARG A   1       8.475  -0.026  20.386  0.00  0.00    -0.320 NA
ATOM     37  H1  ARG A   1       8.999  -0.895  20.265  0.00  0.00    +0.119 HD
ATOM     38  H2  ARG A   1       8.782   0.561  19.602  0.00  0.00    +0.119 HD
ENDBRANCH  35  36
BRANCH  35  39
ATOM     39  CB  ARG A   1       6.738  -0.512  18.720  0.00  0.00    +0.031 C 
BRANCH  39  40
ATOM     40  CG  ARG A   1       5.561   0.343  18.240  0.00  0.00    +0.039 C 
BRANCH  40  41
ATOM     41  CD  ARG A   1       5.109   1.332  19.309  0.00  0.00    +0.196 C 
BRANCH  41  42
ATOM     42  NE  ARG A   1       4.211   2.343  18.732  0.00  0.00    -0.279 N 
ATOM     43  CZ  ARG A   1       3.048   2.726  19.274  0.00  0.00    +0.341 C 
ATOM     44  NH2 ARG A   1       2.581   2.178  20.399  0.00  0.00    -0.292 N 
ATOM     45 HH21 ARG A   1       3.099   1.459  20.886  0.00  0.00    +0.255 HD
ATOM     46 HH22 ARG A   1       1.706   2.476  20.806  0.00  0.00    +0.255 HD
ATOM     47  NH1 ARG A   1       2.329   3.680  18.688  0.00  0.00    -0.292 N 
ATOM     48 HH11 ARG A   1       1.433   3.983  19.036  0.00  0.00    +0.255 HD
ATOM     49 HH12 ARG A   1       2.711   4.205  17.890  0.00  0.00    +0.255 HD
ATOM     50  HE  ARG A   1       4.471   2.801  17.862  0.00  0.00    +0.258 HD
ENDBRANCH  41  42
ENDBRANCH  40  41
ENDBRANCH  39  40
ENDBRANCH  35  39
ENDBRANCH  31  35
ENDBRANCH  30  33
BRANCH  30  51
ATOM     51  CB  LEU A   2       7.725  -4.307  22.505  0.00  0.00    +0.034 C 
BRANCH  51  52
ATOM     52  CG  LEU A   2       6.591  -5.352  22.446  0.00  0.00    -0.015 C 
ATOM     53  CD2 LEU A   2       6.225  -5.727  21.009  0.00  0.00    +0.007 C 
ATOM     54  CD1 LEU A   2       5.353  -4.819  23.170  0.00  0.00    +0.007 C 
ENDBRANCH  51  52
ENDBRANCH  30  51
ENDBRANCH  26  30
ENDBRANCH   1  27
BRANCH   1  55
ATOM     55  CB  GLN A   3      10.450   0.230  24.877  0.00  0.00    +0.041 C 
BRANCH  55  56
ATOM     56  CG  GLN A   3      10.445   0.404  23.361  0.00  0.00    +0.098 C 
BRANCH  56  57
ATOM     57  CD  GLN A   3       9.999   1.809  23.023  0.00  0.00    +0.211 C 
ATOM     58  NE2 GLN A   3      10.074   2.138  21.705  0.00  0.00    -0.329 N 
ATOM     59 HE21 GLN A   3      10.305   1.463  20.983  0.00  0.00    +0.145 HD
ATOM     60 HE22 GLN A   3       9.788   3.059  21.398  0.00  0.00    +0.145 HD
ATOM     61  OE1 GLN A   3       9.664   2.634  23.874  0.00  0.00    -0.276 OA
ENDBRANCH  56  57
ENDBRANCH  55  56
ENDBRANCH   1  55
TORSDOF 23
ENDMDL
MODEL 9
REMARK VINA RESULT:      -6.1      2.229      5.064
REMARK  Name = RLQAGN-mmff94.pdb
REMARK  26 active torsions:
REMARK  status: ('A' for Active; 'I' for Inactive)
REMARK    1  A    between atoms: _1  and  _2
REMARK    2  A    between atoms: _2  and  _3
REMARK    3  A    between atoms: _2  and  _5
REMARK    4  A    between atoms: _5  and  _6
REMARK    5  A    between atoms: _6  and  _7
REMARK    6  A    between atoms: _7  and  _8
REMARK    7  A    between atoms: _25  and  _26
REMARK    8  A    between atoms: _26  and  _27
REMARK    9  A    between atoms: _26  and  _29
REMARK   10  A    between atoms: _29  and  _30
REMARK   11  A    between atoms: _30  and  _31
REMARK   12  A    between atoms: _30  and  _32
REMARK   13  A    between atoms: _44  and  _45
REMARK   14  A    between atoms: _45  and  _46
REMARK   15  A    between atoms: _45  and  _48
REMARK   16  A    between atoms: _48  and  _49
REMARK   17  A    between atoms: _49  and  _50
REMARK   18  A    between atoms: _61  and  _62
REMARK   19  A    between atoms: _62  and  _63
REMARK   20  A    between atoms: _62  and  _65
REMARK   21  A    between atoms: _71  and  _72
REMARK   22  A    between atoms: _72  and  _73
REMARK   23  A    between atoms: _78  and  _79
REMARK   24  A    between atoms: _79  and  _80
REMARK   25  A    between atoms: _79  and  _82
REMARK   26  A    between atoms: _82  and  _83
REMARK                            x       y       z     vdW  Elec       q    Type
REMARK                         _______ _______ _______ _____ _____    ______ ____
ROOT
ATOM      1  CA  GLN A   3       5.973  -4.611  21.912  0.00  0.00    +0.159 C 
ENDROOT
BRANCH   1   2
ATOM      2  C   GLN A   3       4.771  -4.729  22.868  0.00  0.00    +0.234 C 
ATOM      3  O   GLN A   3       4.280  -3.735  23.406  0.00  0.00    -0.274 OA
ATOM      4  N   ALA A   4       4.316  -6.000  23.106  0.00  0.00    -0.303 N 
ATOM      5  H   ALA A   4       4.683  -6.801  22.600  0.00  0.00    +0.149 HD
BRANCH   4   6
ATOM      6  CA  ALA A   4       3.153  -6.259  23.957  0.00  0.00    +0.156 C 
ATOM      7  CB  ALA A   4       2.536  -7.621  23.646  0.00  0.00    +0.038 C 
BRANCH   6   8
ATOM      8  C   ALA A   4       3.607  -6.200  25.428  0.00  0.00    +0.233 C 
ATOM      9  N   GLY A   5       3.424  -4.987  26.041  0.00  0.00    -0.305 N 
ATOM     10  H   GLY A   5       3.095  -4.179  25.518  0.00  0.00    +0.149 HD
ATOM     11  O   ALA A   4       4.084  -7.179  26.003  0.00  0.00    -0.274 OA
BRANCH   9  12
ATOM     12  CA  GLY A   5       3.715  -4.773  27.447  0.00  0.00    +0.200 C 
BRANCH  12  13
ATOM     13  C   GLY A   5       4.467  -3.452  27.611  0.00  0.00    +0.231 C 
ATOM     14  O   GLY A   5       4.445  -2.805  28.657  0.00  0.00    -0.274 OA
ATOM     15  N   ASN A   6       5.149  -3.035  26.495  0.00  0.00    -0.304 N 
ATOM     16  H   ASN A   6       5.071  -3.549  25.620  0.00  0.00    +0.149 HD
BRANCH  15  17
ATOM     17  CA  ASN A   6       5.937  -1.806  26.470  0.00  0.00    +0.145 C 
BRANCH  17  18
ATOM     18  C   ASN A   6       5.738  -1.168  25.102  0.00  0.00    +0.245 C 
ATOM     19  O   ASN A   6       6.276  -1.582  24.076  0.00  0.00    -0.299 OA
ENDBRANCH  17  18
BRANCH  17  20
ATOM     20  CB  ASN A   6       7.427  -2.048  26.674  0.00  0.00    +0.125 C 
BRANCH  20  21
ATOM     21  CG  ASN A   6       8.269  -0.795  26.657  0.00  0.00    +0.213 C 
ATOM     22  ND2 ASN A   6       8.045   0.107  27.654  0.00  0.00    -0.329 N 
ATOM     23 HD21 ASN A   6       8.688   0.892  27.646  0.00  0.00    +0.145 HD
ATOM     24 HD22 ASN A   6       7.804  -0.213  28.583  0.00  0.00    +0.145 HD
ATOM     25  OD1 ASN A   6       9.075  -0.553  25.766  0.00  0.00    -0.276 OA
ENDBRANCH  20  21
ENDBRANCH  17  20
ENDBRANCH  15  17
ENDBRANCH  12  13
ENDBRANCH   9  12
ENDBRANCH   6   8
ENDBRANCH   4   6
ENDBRANCH   1   2
BRANCH   1  27
ATOM     26  C   LEU A   2       5.896  -2.618  20.414  0.00  0.00    +0.234 C 
ATOM     27  N   GLN A   3       6.132  -3.182  21.644  0.00  0.00    -0.302 N 
ATOM     28  H   GLN A   3       6.474  -2.614  22.419  0.00  0.00    +0.150 HD
ATOM     29  O   LEU A   2       5.550  -3.287  19.439  0.00  0.00    -0.274 OA
BRANCH  26  30
ATOM     30  CA  LEU A   2       6.119  -1.089  20.347  0.00  0.00    +0.159 C 
BRANCH  30  33
ATOM     31  C   ARG A   1       7.787   0.141  21.701  0.00  0.00    +0.230 C 
ATOM     32  O   ARG A   1       6.976   0.977  22.091  0.00  0.00    -0.274 OA
ATOM     33  N   LEU A   2       7.490  -0.831  20.777  0.00  0.00    -0.303 N 
ATOM     34  H   LEU A   2       8.137  -1.604  20.662  0.00  0.00    +0.149 HD
BRANCH  31  35
ATOM     35  CA  ARG A   1       9.234   0.088  22.230  0.00  0.00    +0.138 C 
BRANCH  35  36
ATOM     36  N   ARG A   1       9.975  -0.958  21.507  0.00  0.00    -0.320 NA
ATOM     37  H1  ARG A   1      10.616  -0.515  20.846  0.00  0.00    +0.119 HD
ATOM     38  H2  ARG A   1      10.594  -1.428  22.177  0.00  0.00    +0.119 HD
ENDBRANCH  35  36
BRANCH  35  39
ATOM     39  CB  ARG A   1       9.918   1.444  22.009  0.00  0.00    +0.031 C 
BRANCH  39  40
ATOM     40  CG  ARG A   1      10.253   2.150  23.328  0.00  0.00    +0.039 C 
BRANCH  40  41
ATOM     41  CD  ARG A   1       9.551   3.499  23.439  0.00  0.00    +0.196 C 
BRANCH  41  42
ATOM     42  NE  ARG A   1       8.155   3.394  22.991  0.00  0.00    -0.279 N 
ATOM     43  CZ  ARG A   1       7.467   4.383  22.406  0.00  0.00    +0.341 C 
ATOM     44  NH2 ARG A   1       8.002   5.591  22.206  0.00  0.00    -0.292 N 
ATOM     45 HH21 ARG A   1       8.952   5.795  22.483  0.00  0.00    +0.255 HD
ATOM     46 HH22 ARG A   1       7.479   6.330  21.758  0.00  0.00    +0.255 HD
ATOM     47  NH1 ARG A   1       6.217   4.169  22.004  0.00  0.00    -0.292 N 
ATOM     48 HH11 ARG A   1       5.645   4.886  21.587  0.00  0.00    +0.255 HD
ATOM     49 HH12 ARG A   1       5.814   3.223  22.034  0.00  0.00    +0.255 HD
ATOM     50  HE  ARG A   1       7.655   2.518  23.122  0.00  0.00    +0.258 HD
ENDBRANCH  41  42
ENDBRANCH  40  41
ENDBRANCH  39  40
ENDBRANCH  35  39
ENDBRANCH  31  35
ENDBRANCH  30  33
BRANCH  30  51
ATOM     51  CB  LEU A   2       5.886  -0.552  18.929  0.00  0.00    +0.034 C 
BRANCH  51  52
ATOM     52  CG  LEU A   2       5.884   0.988  18.839  0.00  0.00    -0.015 C 
ATOM     53  CD2 LEU A   2       4.541   1.590  19.258  0.00  0.00    +0.007 C 
ATOM     54  CD1 LEU A   2       6.222   1.427  17.413  0.00  0.00    +0.007 C 
ENDBRANCH  51  52
ENDBRANCH  30  51
ENDBRANCH  26  30
ENDBRANCH   1  27
BRANCH   1  55
ATOM     55  CB  GLN A   3       7.246  -5.181  22.549  0.00  0.00    +0.041 C 
BRANCH  55  56
ATOM     56  CG  GLN A   3       7.412  -4.779  24.012  0.00  0.00    +0.098 C 
BRANCH  56  57
ATOM     57  CD  GLN A   3       8.803  -4.225  24.221  0.00  0.00    +0.211 C 
ATOM     58  NE2 GLN A   3       9.008  -2.976  23.722  0.00  0.00    -0.329 N 
ATOM     59 HE21 GLN A   3       8.260  -2.409  23.335  0.00  0.00    +0.145 HD
ATOM     60 HE22 GLN A   3       9.912  -2.533  23.826  0.00  0.00    +0.145 HD
ATOM     61  OE1 GLN A   3       9.717  -4.870  24.734  0.00  0.00    -0.276 OA
ENDBRANCH  56  57
ENDBRANCH  55  56
ENDBRANCH   1  55
TORSDOF 23
ENDMDL
MODEL 10
REMARK VINA RESULT:      -6.1      2.131      7.052
REMARK  Name = RLQAGN-mmff94.pdb
REMARK  26 active torsions:
REMARK  status: ('A' for Active; 'I' for Inactive)
REMARK    1  A    between atoms: _1  and  _2
REMARK    2  A    between atoms: _2  and  _3
REMARK    3  A    between atoms: _2  and  _5
REMARK    4  A    between atoms: _5  and  _6
REMARK    5  A    between atoms: _6  and  _7
REMARK    6  A    between atoms: _7  and  _8
REMARK    7  A    between atoms: _25  and  _26
REMARK    8  A    between atoms: _26  and  _27
REMARK    9  A    between atoms: _26  and  _29
REMARK   10  A    between atoms: _29  and  _30
REMARK   11  A    between atoms: _30  and  _31
REMARK   12  A    between atoms: _30  and  _32
REMARK   13  A    between atoms: _44  and  _45
REMARK   14  A    between atoms: _45  and  _46
REMARK   15  A    between atoms: _45  and  _48
REMARK   16  A    between atoms: _48  and  _49
REMARK   17  A    between atoms: _49  and  _50
REMARK   18  A    between atoms: _61  and  _62
REMARK   19  A    between atoms: _62  and  _63
REMARK   20  A    between atoms: _62  and  _65
REMARK   21  A    between atoms: _71  and  _72
REMARK   22  A    between atoms: _72  and  _73
REMARK   23  A    between atoms: _78  and  _79
REMARK   24  A    between atoms: _79  and  _80
REMARK   25  A    between atoms: _79  and  _82
REMARK   26  A    between atoms: _82  and  _83
REMARK                            x       y       z     vdW  Elec       q    Type
REMARK                         _______ _______ _______ _____ _____    ______ ____
ROOT
ATOM      1  CA  GLN A   3       7.577   2.556  22.159  0.00  0.00    +0.159 C 
ENDROOT
BRANCH   1   2
ATOM      2  C   GLN A   3       6.432   2.112  21.229  0.00  0.00    +0.234 C 
ATOM      3  O   GLN A   3       5.293   2.562  21.356  0.00  0.00    -0.274 OA
ATOM      4  N   ALA A   4       6.754   1.167  20.289  0.00  0.00    -0.303 N 
ATOM      5  H   ALA A   4       7.713   0.860  20.150  0.00  0.00    +0.149 HD
BRANCH   4   6
ATOM      6  CA  ALA A   4       5.779   0.686  19.310  0.00  0.00    +0.156 C 
ATOM      7  CB  ALA A   4       6.038   1.291  17.932  0.00  0.00    +0.038 C 
BRANCH   6   8
ATOM      8  C   ALA A   4       5.873  -0.851  19.246  0.00  0.00    +0.233 C 
ATOM      9  N   GLY A   5       5.921  -1.478  20.464  0.00  0.00    -0.305 N 
ATOM     10  H   GLY A   5       5.977  -0.943  21.328  0.00  0.00    +0.149 HD
ATOM     11  O   ALA A   4       5.890  -1.459  18.175  0.00  0.00    -0.274 OA
BRANCH   9  12
ATOM     12  CA  GLY A   5       5.925  -2.923  20.596  0.00  0.00    +0.200 C 
BRANCH  12  13
ATOM     13  C   GLY A   5       6.073  -3.295  22.071  0.00  0.00    +0.231 C 
ATOM     14  O   GLY A   5       5.107  -3.551  22.789  0.00  0.00    -0.274 OA
ATOM     15  N   ASN A   6       7.364  -3.298  22.538  0.00  0.00    -0.304 N 
ATOM     16  H   ASN A   6       8.130  -2.992  21.940  0.00  0.00    +0.149 HD
BRANCH  15  17
ATOM     17  CA  ASN A   6       7.701  -3.644  23.916  0.00  0.00    +0.145 C 
BRANCH  17  18
ATOM     18  C   ASN A   6       8.929  -2.830  24.301  0.00  0.00    +0.245 C 
ATOM     19  O   ASN A   6      10.052  -3.040  23.846  0.00  0.00    -0.299 OA
ENDBRANCH  17  18
BRANCH  17  20
ATOM     20  CB  ASN A   6       8.028  -5.120  24.098  0.00  0.00    +0.125 C 
BRANCH  20  21
ATOM     21  CG  ASN A   6       8.469  -5.492  25.493  0.00  0.00    +0.213 C 
ATOM     22  ND2 ASN A   6       9.804  -5.690  25.681  0.00  0.00    -0.329 N 
ATOM     23 HD21 ASN A   6      10.059  -5.858  26.648  0.00  0.00    +0.145 HD
ATOM     24 HD22 ASN A   6      10.476  -5.129  25.174  0.00  0.00    +0.145 HD
ATOM     25  OD1 ASN A   6       7.675  -5.673  26.411  0.00  0.00    -0.276 OA
ENDBRANCH  20  21
ENDBRANCH  17  20
ENDBRANCH  15  17
ENDBRANCH  12  13
ENDBRANCH   9  12
ENDBRANCH   6   8
ENDBRANCH   4   6
ENDBRANCH   1   2
BRANCH   1  27
ATOM     26  C   LEU A   2       6.874   0.912  23.897  0.00  0.00    +0.234 C 
ATOM     27  N   GLN A   3       7.153   2.201  23.513  0.00  0.00    -0.302 N 
ATOM     28  H   GLN A   3       7.029   2.975  24.164  0.00  0.00    +0.150 HD
ATOM     29  O   LEU A   2       6.945  -0.039  23.117  0.00  0.00    -0.274 OA
BRANCH  26  30
ATOM     30  CA  LEU A   2       6.448   0.753  25.375  0.00  0.00    +0.159 C 
BRANCH  30  33
ATOM     31  C   ARG A   1       5.189  -1.265  26.059  0.00  0.00    +0.230 C 
ATOM     32  O   ARG A   1       4.194  -0.630  26.400  0.00  0.00    -0.274 OA
ATOM     33  N   LEU A   2       6.361  -0.678  25.650  0.00  0.00    -0.303 N 
ATOM     34  H   LEU A   2       7.057  -1.255  25.191  0.00  0.00    +0.149 HD
BRANCH  31  35
ATOM     35  CA  ARG A   1       5.214  -2.807  26.038  0.00  0.00    +0.138 C 
BRANCH  35  36
ATOM     36  N   ARG A   1       6.008  -3.292  27.179  0.00  0.00    -0.320 NA
ATOM     37  H1  ARG A   1       5.374  -3.615  27.912  0.00  0.00    +0.119 HD
ATOM     38  H2  ARG A   1       6.500  -4.143  26.883  0.00  0.00    +0.119 HD
ENDBRANCH  35  36
BRANCH  35  39
ATOM     39  CB  ARG A   1       3.782  -3.351  26.144  0.00  0.00    +0.031 C 
BRANCH  39  40
ATOM     40  CG  ARG A   1       3.678  -4.808  25.680  0.00  0.00    +0.039 C 
BRANCH  40  41
ATOM     41  CD  ARG A   1       3.523  -5.765  26.856  0.00  0.00    +0.196 C 
BRANCH  41  42
ATOM     42  NE  ARG A   1       4.839  -6.155  27.383  0.00  0.00    -0.279 N 
ATOM     43  CZ  ARG A   1       5.029  -6.954  28.440  0.00  0.00    +0.341 C 
ATOM     44  NH2 ARG A   1       4.006  -7.450  29.142  0.00  0.00    -0.292 N 
ATOM     45 HH21 ARG A   1       3.049  -7.244  28.889  0.00  0.00    +0.255 HD
ATOM     46 HH22 ARG A   1       4.156  -8.058  29.934  0.00  0.00    +0.255 HD
ATOM     47  NH1 ARG A   1       6.266  -7.276  28.811  0.00  0.00    -0.292 N 
ATOM     48 HH11 ARG A   1       6.466  -7.848  29.616  0.00  0.00    +0.255 HD
ATOM     49 HH12 ARG A   1       7.070  -7.011  28.227  0.00  0.00    +0.255 HD
ATOM     50  HE  ARG A   1       5.680  -5.808  26.928  0.00  0.00    +0.258 HD
ENDBRANCH  41  42
ENDBRANCH  40  41
ENDBRANCH  39  40
ENDBRANCH  35  39
ENDBRANCH  31  35
ENDBRANCH  30  33
BRANCH  30  51
ATOM     51  CB  LEU A   2       7.451   1.426  26.322  0.00  0.00    +0.034 C 
BRANCH  51  52
ATOM     52  CG  LEU A   2       6.790   2.191  27.488  0.00  0.00    -0.015 C 
ATOM     53  CD2 LEU A   2       6.692   1.339  28.755  0.00  0.00    +0.007 C 
ATOM     54  CD1 LEU A   2       5.396   2.667  27.077  0.00  0.00    +0.007 C 
ENDBRANCH  51  52
ENDBRANCH  30  51
ENDBRANCH  26  30
ENDBRANCH   1  27
BRANCH   1  55
ATOM     55  CB  GLN A   3       8.888   1.842  21.804  0.00  0.00    +0.041 C 
BRANCH  55  56
ATOM     56  CG  GLN A   3       9.992   2.081  22.830  0.00  0.00    +0.098 C 
BRANCH  56  57
ATOM     57  CD  GLN A   3      10.481   0.749  23.354  0.00  0.00    +0.211 C 
ATOM     58  NE2 GLN A   3      10.154  -0.327  22.588  0.00  0.00    -0.329 N 
ATOM     59 HE21 GLN A   3       9.712  -0.241  21.679  0.00  0.00    +0.145 HD
ATOM     60 HE22 GLN A   3      10.449  -1.254  22.869  0.00  0.00    +0.145 HD
ATOM     61  OE1 GLN A   3      11.066   0.619  24.429  0.00  0.00    -0.276 OA
ENDBRANCH  56  57
ENDBRANCH  55  56
ENDBRANCH   1  55
TORSDOF 23
ENDMDL
MODEL 11
REMARK VINA RESULT:      -6.1      2.141      4.292
REMARK  Name = RLQAGN-mmff94.pdb
REMARK  26 active torsions:
REMARK  status: ('A' for Active; 'I' for Inactive)
REMARK    1  A    between atoms: _1  and  _2
REMARK    2  A    between atoms: _2  and  _3
REMARK    3  A    between atoms: _2  and  _5
REMARK    4  A    between atoms: _5  and  _6
REMARK    5  A    between atoms: _6  and  _7
REMARK    6  A    between atoms: _7  and  _8
REMARK    7  A    between atoms: _25  and  _26
REMARK    8  A    between atoms: _26  and  _27
REMARK    9  A    between atoms: _26  and  _29
REMARK   10  A    between atoms: _29  and  _30
REMARK   11  A    between atoms: _30  and  _31
REMARK   12  A    between atoms: _30  and  _32
REMARK   13  A    between atoms: _44  and  _45
REMARK   14  A    between atoms: _45  and  _46
REMARK   15  A    between atoms: _45  and  _48
REMARK   16  A    between atoms: _48  and  _49
REMARK   17  A    between atoms: _49  and  _50
REMARK   18  A    between atoms: _61  and  _62
REMARK   19  A    between atoms: _62  and  _63
REMARK   20  A    between atoms: _62  and  _65
REMARK   21  A    between atoms: _71  and  _72
REMARK   22  A    between atoms: _72  and  _73
REMARK   23  A    between atoms: _78  and  _79
REMARK   24  A    between atoms: _79  and  _80
REMARK   25  A    between atoms: _79  and  _82
REMARK   26  A    between atoms: _82  and  _83
REMARK                            x       y       z     vdW  Elec       q    Type
REMARK                         _______ _______ _______ _____ _____    ______ ____
ROOT
ATOM      1  CA  GLN A   3       5.956  -4.768  22.376  0.00  0.00    +0.159 C 
ENDROOT
BRANCH   1   2
ATOM      2  C   GLN A   3       4.583  -4.803  23.074  0.00  0.00    +0.234 C 
ATOM      3  O   GLN A   3       4.197  -3.865  23.773  0.00  0.00    -0.274 OA
ATOM      4  N   ALA A   4       3.849  -5.947  22.899  0.00  0.00    -0.303 N 
ATOM      5  H   ALA A   4       4.149  -6.680  22.262  0.00  0.00    +0.149 HD
BRANCH   4   6
ATOM      6  CA  ALA A   4       2.508  -6.100  23.465  0.00  0.00    +0.156 C 
ATOM      7  CB  ALA A   4       1.539  -6.680  22.438  0.00  0.00    +0.038 C 
BRANCH   6   8
ATOM      8  C   ALA A   4       2.604  -7.026  24.693  0.00  0.00    +0.233 C 
ATOM      9  N   GLY A   5       1.862  -6.629  25.776  0.00  0.00    -0.305 N 
ATOM     10  H   GLY A   5       1.366  -5.742  25.775  0.00  0.00    +0.149 HD
ATOM     11  O   ALA A   4       3.289  -8.050  24.686  0.00  0.00    -0.274 OA
BRANCH   9  12
ATOM     12  CA  GLY A   5       1.766  -7.423  26.987  0.00  0.00    +0.200 C 
BRANCH  12  13
ATOM     13  C   GLY A   5       2.709  -6.846  28.044  0.00  0.00    +0.231 C 
ATOM     14  O   GLY A   5       2.962  -7.433  29.095  0.00  0.00    -0.274 OA
ATOM     15  N   ASN A   6       3.231  -5.614  27.740  0.00  0.00    -0.304 N 
ATOM     16  H   ASN A   6       2.929  -5.117  26.903  0.00  0.00    +0.149 HD
BRANCH  15  17
ATOM     17  CA  ASN A   6       4.162  -4.915  28.621  0.00  0.00    +0.145 C 
BRANCH  17  18
ATOM     18  C   ASN A   6       3.577  -3.537  28.898  0.00  0.00    +0.245 C 
ATOM     19  O   ASN A   6       2.496  -3.359  29.456  0.00  0.00    -0.299 OA
ENDBRANCH  17  18
BRANCH  17  20
ATOM     20  CB  ASN A   6       5.544  -4.735  28.007  0.00  0.00    +0.125 C 
BRANCH  20  21
ATOM     21  CG  ASN A   6       6.485  -5.892  28.241  0.00  0.00    +0.213 C 
ATOM     22  ND2 ASN A   6       6.044  -6.883  29.065  0.00  0.00    -0.329 N 
ATOM     23 HD21 ASN A   6       6.676  -7.674  29.126  0.00  0.00    +0.145 HD
ATOM     24 HD22 ASN A   6       5.066  -7.143  29.067  0.00  0.00    +0.145 HD
ATOM     25  OD1 ASN A   6       7.618  -5.927  27.773  0.00  0.00    -0.276 OA
ENDBRANCH  20  21
ENDBRANCH  17  20
ENDBRANCH  15  17
ENDBRANCH  12  13
ENDBRANCH   9  12
ENDBRANCH   6   8
ENDBRANCH   4   6
ENDBRANCH   1   2
BRANCH   1  27
ATOM     26  C   LEU A   2       6.235  -2.431  21.553  0.00  0.00    +0.234 C 
ATOM     27  N   GLN A   3       6.439  -3.394  22.510  0.00  0.00    -0.302 N 
ATOM     28  H   GLN A   3       6.983  -3.188  23.347  0.00  0.00    +0.150 HD
ATOM     29  O   LEU A   2       5.642  -2.665  20.498  0.00  0.00    -0.274 OA
BRANCH  26  30
ATOM     30  CA  LEU A   2       6.822  -1.042  21.895  0.00  0.00    +0.159 C 
BRANCH  30  33
ATOM     31  C   ARG A   1       7.198  -0.088  24.148  0.00  0.00    +0.230 C 
ATOM     32  O   ARG A   1       6.780   1.025  23.837  0.00  0.00    -0.274 OA
ATOM     33  N   LEU A   2       7.353  -1.118  23.253  0.00  0.00    -0.303 N 
ATOM     34  H   LEU A   2       7.501  -2.054  23.613  0.00  0.00    +0.149 HD
BRANCH  31  35
ATOM     35  CA  ARG A   1       7.579  -0.448  25.598  0.00  0.00    +0.138 C 
BRANCH  35  36
ATOM     36  N   ARG A   1       7.666  -1.912  25.724  0.00  0.00    -0.320 NA
ATOM     37  H1  ARG A   1       7.352  -2.340  24.850  0.00  0.00    +0.119 HD
ATOM     38  H2  ARG A   1       8.659  -2.166  25.783  0.00  0.00    +0.119 HD
ENDBRANCH  35  36
BRANCH  35  39
ATOM     39  CB  ARG A   1       8.935   0.178  25.951  0.00  0.00    +0.031 C 
BRANCH  39  40
ATOM     40  CG  ARG A   1      10.031  -0.208  24.952  0.00  0.00    +0.039 C 
BRANCH  40  41
ATOM     41  CD  ARG A   1      10.736   1.020  24.387  0.00  0.00    +0.196 C 
BRANCH  41  42
ATOM     42  NE  ARG A   1       9.764   2.080  24.084  0.00  0.00    -0.279 N 
ATOM     43  CZ  ARG A   1       9.526   2.567  22.860  0.00  0.00    +0.341 C 
ATOM     44  NH2 ARG A   1      10.196   2.137  21.787  0.00  0.00    -0.292 N 
ATOM     45 HH21 ARG A   1      10.902   1.418  21.865  0.00  0.00    +0.255 HD
ATOM     46 HH22 ARG A   1      10.006   2.503  20.865  0.00  0.00    +0.255 HD
ATOM     47  NH1 ARG A   1       8.595   3.503  22.691  0.00  0.00    -0.292 N 
ATOM     48 HH11 ARG A   1       8.397   3.925  21.798  0.00  0.00    +0.255 HD
ATOM     49 HH12 ARG A   1       7.980   3.772  23.470  0.00  0.00    +0.255 HD
ATOM     50  HE  ARG A   1       9.221   2.488  24.841  0.00  0.00    +0.258 HD
ENDBRANCH  41  42
ENDBRANCH  40  41
ENDBRANCH  39  40
ENDBRANCH  35  39
ENDBRANCH  31  35
ENDBRANCH  30  33
BRANCH  30  51
ATOM     51  CB  LEU A   2       7.923  -0.642  20.904  0.00  0.00    +0.034 C 
BRANCH  51  52
ATOM     52  CG  LEU A   2       7.537   0.536  19.985  0.00  0.00    -0.015 C 
ATOM     53  CD2 LEU A   2       6.432   1.403  20.590  0.00  0.00    +0.007 C 
ATOM     54  CD1 LEU A   2       7.089   0.008  18.621  0.00  0.00    +0.007 C 
ENDBRANCH  51  52
ENDBRANCH  30  51
ENDBRANCH  26  30
ENDBRANCH   1  27
BRANCH   1  55
ATOM     55  CB  GLN A   3       6.937  -5.748  23.033  0.00  0.00    +0.041 C 
BRANCH  55  56
ATOM     56  CG  GLN A   3       7.274  -5.375  24.475  0.00  0.00    +0.098 C 
BRANCH  56  57
ATOM     57  CD  GLN A   3       8.719  -4.935  24.550  0.00  0.00    +0.211 C 
ATOM     58  NE2 GLN A   3       9.524  -5.725  25.310  0.00  0.00    -0.329 N 
ATOM     59 HE21 GLN A   3       9.213  -6.604  25.710  0.00  0.00    +0.145 HD
ATOM     60 HE22 GLN A   3      10.507  -5.500  25.406  0.00  0.00    +0.145 HD
ATOM     61  OE1 GLN A   3       9.137  -3.900  24.031  0.00  0.00    -0.276 OA
ENDBRANCH  56  57
ENDBRANCH  55  56
ENDBRANCH   1  55
TORSDOF 23
ENDMDL
MODEL 12
REMARK VINA RESULT:      -6.1      2.689      8.236
REMARK  Name = RLQAGN-mmff94.pdb
REMARK  26 active torsions:
REMARK  status: ('A' for Active; 'I' for Inactive)
REMARK    1  A    between atoms: _1  and  _2
REMARK    2  A    between atoms: _2  and  _3
REMARK    3  A    between atoms: _2  and  _5
REMARK    4  A    between atoms: _5  and  _6
REMARK    5  A    between atoms: _6  and  _7
REMARK    6  A    between atoms: _7  and  _8
REMARK    7  A    between atoms: _25  and  _26
REMARK    8  A    between atoms: _26  and  _27
REMARK    9  A    between atoms: _26  and  _29
REMARK   10  A    between atoms: _29  and  _30
REMARK   11  A    between atoms: _30  and  _31
REMARK   12  A    between atoms: _30  and  _32
REMARK   13  A    between atoms: _44  and  _45
REMARK   14  A    between atoms: _45  and  _46
REMARK   15  A    between atoms: _45  and  _48
REMARK   16  A    between atoms: _48  and  _49
REMARK   17  A    between atoms: _49  and  _50
REMARK   18  A    between atoms: _61  and  _62
REMARK   19  A    between atoms: _62  and  _63
REMARK   20  A    between atoms: _62  and  _65
REMARK   21  A    between atoms: _71  and  _72
REMARK   22  A    between atoms: _72  and  _73
REMARK   23  A    between atoms: _78  and  _79
REMARK   24  A    between atoms: _79  and  _80
REMARK   25  A    between atoms: _79  and  _82
REMARK   26  A    between atoms: _82  and  _83
REMARK                            x       y       z     vdW  Elec       q    Type
REMARK                         _______ _______ _______ _____ _____    ______ ____
ROOT
ATOM      1  CA  GLN A   3       5.828  -1.440  26.028  0.00  0.00    +0.159 C 
ENDROOT
BRANCH   1   2
ATOM      2  C   GLN A   3       4.775  -0.326  26.180  0.00  0.00    +0.234 C 
ATOM      3  O   GLN A   3       3.651  -0.563  26.625  0.00  0.00    -0.274 OA
ATOM      4  N   ALA A   4       5.155   0.921  25.756  0.00  0.00    -0.303 N 
ATOM      5  H   ALA A   4       6.108   1.116  25.460  0.00  0.00    +0.149 HD
BRANCH   4   6
ATOM      6  CA  ALA A   4       4.275   2.083  25.882  0.00  0.00    +0.156 C 
ATOM      7  CB  ALA A   4       4.635   2.918  27.109  0.00  0.00    +0.038 C 
BRANCH   6   8
ATOM      8  C   ALA A   4       4.404   2.931  24.602  0.00  0.00    +0.233 C 
ATOM      9  N   GLY A   5       5.078   2.325  23.573  0.00  0.00    -0.305 N 
ATOM     10  H   GLY A   5       5.525   1.420  23.699  0.00  0.00    +0.149 HD
ATOM     11  O   ALA A   4       3.923   4.062  24.517  0.00  0.00    -0.274 OA
BRANCH   9  12
ATOM     12  CA  GLY A   5       5.222   2.942  22.267  0.00  0.00    +0.200 C 
BRANCH  12  13
ATOM     13  C   GLY A   5       6.537   2.484  21.635  0.00  0.00    +0.231 C 
ATOM     14  O   GLY A   5       7.578   3.132  21.733  0.00  0.00    -0.274 OA
ATOM     15  N   ASN A   6       6.460   1.307  20.932  0.00  0.00    -0.304 N 
ATOM     16  H   ASN A   6       5.562   0.845  20.797  0.00  0.00    +0.149 HD
BRANCH  15  17
ATOM     17  CA  ASN A   6       7.617   0.707  20.275  0.00  0.00    +0.145 C 
BRANCH  17  18
ATOM     18  C   ASN A   6       7.128   0.083  18.976  0.00  0.00    +0.245 C 
ATOM     19  O   ASN A   6       7.083   0.689  17.907  0.00  0.00    -0.299 OA
ENDBRANCH  17  18
BRANCH  17  20
ATOM     20  CB  ASN A   6       8.280  -0.381  21.110  0.00  0.00    +0.125 C 
BRANCH  20  21
ATOM     21  CG  ASN A   6       9.557   0.049  21.791  0.00  0.00    +0.213 C 
ATOM     22  ND2 ASN A   6       9.939   1.345  21.616  0.00  0.00    -0.329 N 
ATOM     23 HD21 ASN A   6      10.756   1.607  22.157  0.00  0.00    +0.145 HD
ATOM     24 HD22 ASN A   6       9.241   2.075  21.554  0.00  0.00    +0.145 HD
ATOM     25  OD1 ASN A   6      10.263  -0.730  22.424  0.00  0.00    -0.276 OA
ENDBRANCH  20  21
ENDBRANCH  17  20
ENDBRANCH  15  17
ENDBRANCH  12  13
ENDBRANCH   9  12
ENDBRANCH   6   8
ENDBRANCH   4   6
ENDBRANCH   1   2
BRANCH   1  27
ATOM     26  C   LEU A   2       5.111  -3.824  26.176  0.00  0.00    +0.234 C 
ATOM     27  N   GLN A   3       5.104  -2.610  25.533  0.00  0.00    -0.302 N 
ATOM     28  H   GLN A   3       4.614  -2.495  24.646  0.00  0.00    +0.150 HD
ATOM     29  O   LEU A   2       5.750  -4.017  27.212  0.00  0.00    -0.274 OA
BRANCH  26  30
ATOM     30  CA  LEU A   2       4.275  -4.928  25.488  0.00  0.00    +0.159 C 
BRANCH  30  33
ATOM     31  C   ARG A   1       4.773  -5.320  23.095  0.00  0.00    +0.230 C 
ATOM     32  O   ARG A   1       3.701  -4.858  22.711  0.00  0.00    -0.274 OA
ATOM     33  N   LEU A   2       5.096  -5.490  24.419  0.00  0.00    -0.303 N 
ATOM     34  H   LEU A   2       6.063  -5.676  24.661  0.00  0.00    +0.149 HD
BRANCH  31  35
ATOM     35  CA  ARG A   1       5.885  -5.743  22.114  0.00  0.00    +0.138 C 
BRANCH  35  36
ATOM     36  N   ARG A   1       5.819  -4.892  20.914  0.00  0.00    -0.320 NA
ATOM     37  H1  ARG A   1       6.352  -4.036  21.085  0.00  0.00    +0.119 HD
ATOM     38  H2  ARG A   1       6.337  -5.363  20.164  0.00  0.00    +0.119 HD
ENDBRANCH  35  36
BRANCH  35  39
ATOM     39  CB  ARG A   1       7.257  -5.580  22.782  0.00  0.00    +0.031 C 
BRANCH  39  40
ATOM     40  CG  ARG A   1       7.779  -4.142  22.696  0.00  0.00    +0.039 C 
BRANCH  40  41
ATOM     41  CD  ARG A   1       8.669  -3.793  23.884  0.00  0.00    +0.196 C 
BRANCH  41  42
ATOM     42  NE  ARG A   1       8.160  -4.419  25.113  0.00  0.00    -0.279 N 
ATOM     43  CZ  ARG A   1       8.866  -5.246  25.894  0.00  0.00    +0.341 C 
ATOM     44  NH2 ARG A   1      10.117  -5.604  25.593  0.00  0.00    -0.292 N 
ATOM     45 HH21 ARG A   1      10.577  -5.252  24.764  0.00  0.00    +0.255 HD
ATOM     46 HH22 ARG A   1      10.647  -6.223  26.190  0.00  0.00    +0.255 HD
ATOM     47  NH1 ARG A   1       8.320  -5.728  27.008  0.00  0.00    -0.292 N 
ATOM     48 HH11 ARG A   1       8.796  -6.377  27.615  0.00  0.00    +0.255 HD
ATOM     49 HH12 ARG A   1       7.407  -5.383  27.333  0.00  0.00    +0.255 HD
ATOM     50  HE  ARG A   1       7.208  -4.225  25.413  0.00  0.00    +0.258 HD
ENDBRANCH  41  42
ENDBRANCH  40  41
ENDBRANCH  39  40
ENDBRANCH  35  39
ENDBRANCH  31  35
ENDBRANCH  30  33
BRANCH  30  51
ATOM     51  CB  LEU A   2       3.863  -6.019  26.484  0.00  0.00    +0.034 C 
BRANCH  51  52
ATOM     52  CG  LEU A   2       2.339  -6.257  26.552  0.00  0.00    -0.015 C 
ATOM     53  CD2 LEU A   2       1.558  -4.954  26.726  0.00  0.00    +0.007 C 
ATOM     54  CD1 LEU A   2       2.012  -7.212  27.702  0.00  0.00    +0.007 C 
ENDBRANCH  51  52
ENDBRANCH  30  51
ENDBRANCH  26  30
ENDBRANCH   1  27
BRANCH   1  55
ATOM     55  CB  GLN A   3       6.928  -1.033  25.039  0.00  0.00    +0.041 C 
BRANCH  55  56
ATOM     56  CG  GLN A   3       8.233  -0.645  25.727  0.00  0.00    +0.098 C 
BRANCH  56  57
ATOM     57  CD  GLN A   3       8.709   0.682  25.180  0.00  0.00    +0.211 C 
ATOM     58  NE2 GLN A   3      10.056   0.870  25.208  0.00  0.00    -0.329 N 
ATOM     59 HE21 GLN A   3      10.707   0.138  25.473  0.00  0.00    +0.145 HD
ATOM     60 HE22 GLN A   3      10.453   1.731  24.854  0.00  0.00    +0.145 HD
ATOM     61  OE1 GLN A   3       7.944   1.570  24.803  0.00  0.00    -0.276 OA
ENDBRANCH  56  57
ENDBRANCH  55  56
ENDBRANCH   1  55
TORSDOF 23
ENDMDL
MODEL 13
REMARK VINA RESULT:      -6.1      1.791      4.203
REMARK  Name = RLQAGN-mmff94.pdb
REMARK  26 active torsions:
REMARK  status: ('A' for Active; 'I' for Inactive)
REMARK    1  A    between atoms: _1  and  _2
REMARK    2  A    between atoms: _2  and  _3
REMARK    3  A    between atoms: _2  and  _5
REMARK    4  A    between atoms: _5  and  _6
REMARK    5  A    between atoms: _6  and  _7
REMARK    6  A    between atoms: _7  and  _8
REMARK    7  A    between atoms: _25  and  _26
REMARK    8  A    between atoms: _26  and  _27
REMARK    9  A    between atoms: _26  and  _29
REMARK   10  A    between atoms: _29  and  _30
REMARK   11  A    between atoms: _30  and  _31
REMARK   12  A    between atoms: _30  and  _32
REMARK   13  A    between atoms: _44  and  _45
REMARK   14  A    between atoms: _45  and  _46
REMARK   15  A    between atoms: _45  and  _48
REMARK   16  A    between atoms: _48  and  _49
REMARK   17  A    between atoms: _49  and  _50
REMARK   18  A    between atoms: _61  and  _62
REMARK   19  A    between atoms: _62  and  _63
REMARK   20  A    between atoms: _62  and  _65
REMARK   21  A    between atoms: _71  and  _72
REMARK   22  A    between atoms: _72  and  _73
REMARK   23  A    between atoms: _78  and  _79
REMARK   24  A    between atoms: _79  and  _80
REMARK   25  A    between atoms: _79  and  _82
REMARK   26  A    between atoms: _82  and  _83
REMARK                            x       y       z     vdW  Elec       q    Type
REMARK                         _______ _______ _______ _____ _____    ______ ____
ROOT
ATOM      1  CA  GLN A   3       7.976  -2.684  25.105  0.00  0.00    +0.159 C 
ENDROOT
BRANCH   1   2
ATOM      2  C   GLN A   3       7.669  -3.525  26.358  0.00  0.00    +0.234 C 
ATOM      3  O   GLN A   3       8.525  -4.248  26.870  0.00  0.00    -0.274 OA
ATOM      4  N   ALA A   4       6.386  -3.445  26.836  0.00  0.00    -0.303 N 
ATOM      5  H   ALA A   4       5.713  -2.790  26.447  0.00  0.00    +0.149 HD
BRANCH   4   6
ATOM      6  CA  ALA A   4       5.965  -4.153  28.045  0.00  0.00    +0.156 C 
ATOM      7  CB  ALA A   4       4.717  -3.515  28.651  0.00  0.00    +0.038 C 
BRANCH   6   8
ATOM      8  C   ALA A   4       5.688  -5.623  27.674  0.00  0.00    +0.233 C 
ATOM      9  N   GLY A   5       4.561  -5.826  26.919  0.00  0.00    -0.305 N 
ATOM     10  H   GLY A   5       3.927  -5.060  26.707  0.00  0.00    +0.149 HD
ATOM     11  O   ALA A   4       6.436  -6.536  28.026  0.00  0.00    -0.274 OA
BRANCH   9  12
ATOM     12  CA  GLY A   5       4.192  -7.134  26.409  0.00  0.00    +0.200 C 
BRANCH  12  13
ATOM     13  C   GLY A   5       4.209  -7.101  24.880  0.00  0.00    +0.231 C 
ATOM     14  O   GLY A   5       3.452  -7.789  24.196  0.00  0.00    -0.274 OA
ATOM     15  N   ASN A   6       5.147  -6.263  24.331  0.00  0.00    -0.304 N 
ATOM     16  H   ASN A   6       5.817  -5.778  24.927  0.00  0.00    +0.149 HD
BRANCH  15  17
ATOM     17  CA  ASN A   6       5.299  -6.089  22.890  0.00  0.00    +0.145 C 
BRANCH  17  18
ATOM     18  C   ASN A   6       6.791  -6.054  22.592  0.00  0.00    +0.245 C 
ATOM     19  O   ASN A   6       7.259  -5.696  21.513  0.00  0.00    -0.299 OA
ENDBRANCH  17  18
BRANCH  17  20
ATOM     20  CB  ASN A   6       4.677  -4.797  22.376  0.00  0.00    +0.125 C 
BRANCH  20  21
ATOM     21  CG  ASN A   6       4.816  -3.623  23.313  0.00  0.00    +0.213 C 
ATOM     22  ND2 ASN A   6       5.519  -2.551  22.853  0.00  0.00    -0.329 N 
ATOM     23 HD21 ASN A   6       5.516  -1.758  23.485  0.00  0.00    +0.145 HD
ATOM     24 HD22 ASN A   6       5.467  -2.292  21.876  0.00  0.00    +0.145 HD
ATOM     25  OD1 ASN A   6       4.378  -3.637  24.459  0.00  0.00    -0.276 OA
ENDBRANCH  20  21
ENDBRANCH  17  20
ENDBRANCH  15  17
ENDBRANCH  12  13
ENDBRANCH   9  12
ENDBRANCH   6   8
ENDBRANCH   4   6
ENDBRANCH   1   2
BRANCH   1  27
ATOM     26  C   LEU A   2       7.441  -0.268  25.410  0.00  0.00    +0.234 C 
ATOM     27  N   GLN A   3       8.282  -1.339  25.590  0.00  0.00    -0.302 N 
ATOM     28  H   GLN A   3       9.187  -1.218  26.042  0.00  0.00    +0.150 HD
ATOM     29  O   LEU A   2       6.371  -0.364  24.806  0.00  0.00    -0.274 OA
BRANCH  26  30
ATOM     30  CA  LEU A   2       7.951   1.065  26.006  0.00  0.00    +0.159 C 
BRANCH  30  33
ATOM     31  C   ARG A   1       9.348   1.871  24.128  0.00  0.00    +0.230 C 
ATOM     32  O   ARG A   1      10.305   1.162  24.427  0.00  0.00    -0.274 OA
ATOM     33  N   LEU A   2       8.209   1.969  24.890  0.00  0.00    -0.303 N 
ATOM     34  H   LEU A   2       7.389   2.403  24.480  0.00  0.00    +0.149 HD
BRANCH  31  35
ATOM     35  CA  ARG A   1       9.323   2.720  22.841  0.00  0.00    +0.138 C 
BRANCH  35  36
ATOM     36  N   ARG A   1      10.190   2.091  21.831  0.00  0.00    -0.320 NA
ATOM     37  H1  ARG A   1       9.892   2.394  20.902  0.00  0.00    +0.119 HD
ATOM     38  H2  ARG A   1      11.131   2.487  21.932  0.00  0.00    +0.119 HD
ENDBRANCH  35  36
BRANCH  35  39
ATOM     39  CB  ARG A   1       7.888   2.803  22.302  0.00  0.00    +0.031 C 
BRANCH  39  40
ATOM     40  CG  ARG A   1       7.600   1.730  21.246  0.00  0.00    +0.039 C 
BRANCH  40  41
ATOM     41  CD  ARG A   1       6.116   1.663  20.902  0.00  0.00    +0.196 C 
BRANCH  41  42
ATOM     42  NE  ARG A   1       5.927   1.227  19.511  0.00  0.00    -0.279 N 
ATOM     43  CZ  ARG A   1       5.802  -0.048  19.123  0.00  0.00    +0.341 C 
ATOM     44  NH2 ARG A   1       5.875  -1.060  19.993  0.00  0.00    -0.292 N 
ATOM     45 HH21 ARG A   1       6.018  -0.892  20.980  0.00  0.00    +0.255 HD
ATOM     46 HH22 ARG A   1       5.774  -2.020  19.695  0.00  0.00    +0.255 HD
ATOM     47  NH1 ARG A   1       5.596  -0.331  17.839  0.00  0.00    -0.292 N 
ATOM     48 HH11 ARG A   1       5.526  -1.274  17.490  0.00  0.00    +0.255 HD
ATOM     49 HH12 ARG A   1       5.417   0.422  17.162  0.00  0.00    +0.255 HD
ATOM     50  HE  ARG A   1       5.882   1.925  18.773  0.00  0.00    +0.258 HD
ENDBRANCH  41  42
ENDBRANCH  40  41
ENDBRANCH  39  40
ENDBRANCH  35  39
ENDBRANCH  31  35
ENDBRANCH  30  33
BRANCH  30  51
ATOM     51  CB  LEU A   2       6.925   1.674  26.971  0.00  0.00    +0.034 C 
BRANCH  51  52
ATOM     52  CG  LEU A   2       6.660   0.814  28.224  0.00  0.00    -0.015 C 
ATOM     53  CD2 LEU A   2       5.184   0.435  28.363  0.00  0.00    +0.007 C 
ATOM     54  CD1 LEU A   2       7.120   1.561  29.477  0.00  0.00    +0.007 C 
ENDBRANCH  51  52
ENDBRANCH  30  51
ENDBRANCH  26  30
ENDBRANCH   1  27
BRANCH   1  55
ATOM     55  CB  GLN A   3       9.170  -3.258  24.331  0.00  0.00    +0.041 C 
BRANCH  55  56
ATOM     56  CG  GLN A   3       9.963  -2.191  23.582  0.00  0.00    +0.098 C 
BRANCH  56  57
ATOM     57  CD  GLN A   3       9.273  -1.887  22.271  0.00  0.00    +0.211 C 
ATOM     58  NE2 GLN A   3       9.912  -0.987  21.477  0.00  0.00    -0.329 N 
ATOM     59 HE21 GLN A   3      10.836  -0.624  21.690  0.00  0.00    +0.145 HD
ATOM     60 HE22 GLN A   3       9.517  -0.735  20.579  0.00  0.00    +0.145 HD
ATOM     61  OE1 GLN A   3       8.176  -2.353  21.962  0.00  0.00    -0.276 OA
ENDBRANCH  56  57
ENDBRANCH  55  56
ENDBRANCH   1  55
TORSDOF 23
ENDMDL
MODEL 14
REMARK VINA RESULT:      -6.1      2.979      8.177
REMARK  Name = RLQAGN-mmff94.pdb
REMARK  26 active torsions:
REMARK  status: ('A' for Active; 'I' for Inactive)
REMARK    1  A    between atoms: _1  and  _2
REMARK    2  A    between atoms: _2  and  _3
REMARK    3  A    between atoms: _2  and  _5
REMARK    4  A    between atoms: _5  and  _6
REMARK    5  A    between atoms: _6  and  _7
REMARK    6  A    between atoms: _7  and  _8
REMARK    7  A    between atoms: _25  and  _26
REMARK    8  A    between atoms: _26  and  _27
REMARK    9  A    between atoms: _26  and  _29
REMARK   10  A    between atoms: _29  and  _30
REMARK   11  A    between atoms: _30  and  _31
REMARK   12  A    between atoms: _30  and  _32
REMARK   13  A    between atoms: _44  and  _45
REMARK   14  A    between atoms: _45  and  _46
REMARK   15  A    between atoms: _45  and  _48
REMARK   16  A    between atoms: _48  and  _49
REMARK   17  A    between atoms: _49  and  _50
REMARK   18  A    between atoms: _61  and  _62
REMARK   19  A    between atoms: _62  and  _63
REMARK   20  A    between atoms: _62  and  _65
REMARK   21  A    between atoms: _71  and  _72
REMARK   22  A    between atoms: _72  and  _73
REMARK   23  A    between atoms: _78  and  _79
REMARK   24  A    between atoms: _79  and  _80
REMARK   25  A    between atoms: _79  and  _82
REMARK   26  A    between atoms: _82  and  _83
REMARK                            x       y       z     vdW  Elec       q    Type
REMARK                         _______ _______ _______ _____ _____    ______ ____
ROOT
ATOM      1  CA  GLN A   3       9.933   0.236  22.660  0.00  0.00    +0.159 C 
ENDROOT
BRANCH   1   2
ATOM      2  C   GLN A   3      10.442   1.396  23.537  0.00  0.00    +0.234 C 
ATOM      3  O   GLN A   3      10.982   1.188  24.625  0.00  0.00    -0.274 OA
ATOM      4  N   ALA A   4      10.223   2.659  23.050  0.00  0.00    -0.303 N 
ATOM      5  H   ALA A   4       9.843   2.812  22.120  0.00  0.00    +0.149 HD
BRANCH   4   6
ATOM      6  CA  ALA A   4      10.693   3.852  23.754  0.00  0.00    +0.156 C 
ATOM      7  CB  ALA A   4      11.891   4.476  23.041  0.00  0.00    +0.038 C 
BRANCH   6   8
ATOM      8  C   ALA A   4       9.530   4.861  23.829  0.00  0.00    +0.233 C 
ATOM      9  N   GLY A   5       8.651   4.808  22.777  0.00  0.00    -0.305 N 
ATOM     10  H   GLY A   5       8.823   4.203  21.979  0.00  0.00    +0.149 HD
ATOM     11  O   ALA A   4       9.404   5.642  24.773  0.00  0.00    -0.274 OA
BRANCH   9  12
ATOM     12  CA  GLY A   5       7.453   5.626  22.724  0.00  0.00    +0.200 C 
BRANCH  12  13
ATOM     13  C   GLY A   5       6.278   4.836  23.302  0.00  0.00    +0.231 C 
ATOM     14  O   GLY A   5       5.417   4.317  22.592  0.00  0.00    -0.274 OA
ATOM     15  N   ASN A   6       6.246   4.770  24.673  0.00  0.00    -0.304 N 
ATOM     16  H   ASN A   6       6.924   5.286  25.230  0.00  0.00    +0.149 HD
BRANCH  15  17
ATOM     17  CA  ASN A   6       5.209   4.045  25.401  0.00  0.00    +0.145 C 
BRANCH  17  18
ATOM     18  C   ASN A   6       4.793   4.912  26.581  0.00  0.00    +0.245 C 
ATOM     19  O   ASN A   6       4.749   4.504  27.740  0.00  0.00    -0.299 OA
ENDBRANCH  17  18
BRANCH  17  20
ATOM     20  CB  ASN A   6       5.684   2.701  25.938  0.00  0.00    +0.125 C 
BRANCH  20  21
ATOM     21  CG  ASN A   6       5.181   1.508  25.162  0.00  0.00    +0.213 C 
ATOM     22  ND2 ASN A   6       5.564   1.420  23.857  0.00  0.00    -0.329 N 
ATOM     23 HD21 ASN A   6       5.269   0.563  23.402  0.00  0.00    +0.145 HD
ATOM     24 HD22 ASN A   6       6.484   1.734  23.576  0.00  0.00    +0.145 HD
ATOM     25  OD1 ASN A   6       4.416   0.680  25.645  0.00  0.00    -0.276 OA
ENDBRANCH  20  21
ENDBRANCH  17  20
ENDBRANCH  15  17
ENDBRANCH  12  13
ENDBRANCH   9  12
ENDBRANCH   6   8
ENDBRANCH   4   6
ENDBRANCH   1   2
BRANCH   1  27
ATOM     26  C   LEU A   2       9.178  -1.733  23.990  0.00  0.00    +0.234 C 
ATOM     27  N   GLN A   3       8.953  -0.480  23.475  0.00  0.00    -0.302 N 
ATOM     28  H   GLN A   3       8.056  -0.016  23.612  0.00  0.00    +0.150 HD
ATOM     29  O   LEU A   2      10.223  -2.352  23.784  0.00  0.00    -0.274 OA
BRANCH  26  30
ATOM     30  CA  LEU A   2       8.013  -2.310  24.828  0.00  0.00    +0.159 C 
BRANCH  30  33
ATOM     31  C   ARG A   1       6.377  -2.528  22.983  0.00  0.00    +0.230 C 
ATOM     32  O   ARG A   1       6.142  -1.323  22.938  0.00  0.00    -0.274 OA
ATOM     33  N   LEU A   2       7.186  -3.109  23.929  0.00  0.00    -0.303 N 
ATOM     34  H   LEU A   2       7.497  -4.062  23.780  0.00  0.00    +0.149 HD
BRANCH  31  35
ATOM     35  CA  ARG A   1       5.792  -3.519  21.956  0.00  0.00    +0.138 C 
BRANCH  35  36
ATOM     36  N   ARG A   1       5.595  -2.824  20.673  0.00  0.00    -0.320 NA
ATOM     37  H1  ARG A   1       6.501  -2.494  20.333  0.00  0.00    +0.119 HD
ATOM     38  H2  ARG A   1       5.306  -3.521  19.978  0.00  0.00    +0.119 HD
ENDBRANCH  35  36
BRANCH  35  39
ATOM     39  CB  ARG A   1       6.761  -4.693  21.758  0.00  0.00    +0.031 C 
BRANCH  39  40
ATOM     40  CG  ARG A   1       6.085  -6.049  21.987  0.00  0.00    +0.039 C 
BRANCH  40  41
ATOM     41  CD  ARG A   1       4.754  -5.901  22.715  0.00  0.00    +0.196 C 
BRANCH  41  42
ATOM     42  NE  ARG A   1       4.691  -6.810  23.868  0.00  0.00    -0.279 N 
ATOM     43  CZ  ARG A   1       4.487  -6.423  25.133  0.00  0.00    +0.341 C 
ATOM     44  NH2 ARG A   1       4.354  -5.135  25.463  0.00  0.00    -0.292 N 
ATOM     45 HH21 ARG A   1       4.393  -4.408  24.762  0.00  0.00    +0.255 HD
ATOM     46 HH22 ARG A   1       4.194  -4.850  26.419  0.00  0.00    +0.255 HD
ATOM     47  NH1 ARG A   1       4.410  -7.336  26.099  0.00  0.00    -0.292 N 
ATOM     48 HH11 ARG A   1       4.288  -7.096  27.070  0.00  0.00    +0.255 HD
ATOM     49 HH12 ARG A   1       4.389  -8.338  25.868  0.00  0.00    +0.255 HD
ATOM     50  HE  ARG A   1       4.805  -7.810  23.720  0.00  0.00    +0.258 HD
ENDBRANCH  41  42
ENDBRANCH  40  41
ENDBRANCH  39  40
ENDBRANCH  35  39
ENDBRANCH  31  35
ENDBRANCH  30  33
BRANCH  30  51
ATOM     51  CB  LEU A   2       8.531  -3.165  25.991  0.00  0.00    +0.034 C 
BRANCH  51  52
ATOM     52  CG  LEU A   2       8.274  -4.677  25.815  0.00  0.00    -0.015 C 
ATOM     53  CD2 LEU A   2       7.668  -5.309  27.069  0.00  0.00    +0.007 C 
ATOM     54  CD1 LEU A   2       9.580  -5.390  25.458  0.00  0.00    +0.007 C 
ENDBRANCH  51  52
ENDBRANCH  30  51
ENDBRANCH  26  30
ENDBRANCH   1  27
BRANCH   1  55
ATOM     55  CB  GLN A   3       9.281   0.759  21.374  0.00  0.00    +0.041 C 
BRANCH  55  56
ATOM     56  CG  GLN A   3       8.660  -0.350  20.528  0.00  0.00    +0.098 C 
BRANCH  56  57
ATOM     57  CD  GLN A   3       7.483   0.211  19.762  0.00  0.00    +0.211 C 
ATOM     58  NE2 GLN A   3       6.353   0.402  20.496  0.00  0.00    -0.329 N 
ATOM     59 HE21 GLN A   3       6.327   0.284  21.503  0.00  0.00    +0.145 HD
ATOM     60 HE22 GLN A   3       5.523   0.779  20.056  0.00  0.00    +0.145 HD
ATOM     61  OE1 GLN A   3       7.502   0.413  18.547  0.00  0.00    -0.276 OA
ENDBRANCH  56  57
ENDBRANCH  55  56
ENDBRANCH   1  55
TORSDOF 23
ENDMDL
MODEL 15
REMARK VINA RESULT:      -6.1      1.808      2.455
REMARK  Name = RLQAGN-mmff94.pdb
REMARK  26 active torsions:
REMARK  status: ('A' for Active; 'I' for Inactive)
REMARK    1  A    between atoms: _1  and  _2
REMARK    2  A    between atoms: _2  and  _3
REMARK    3  A    between atoms: _2  and  _5
REMARK    4  A    between atoms: _5  and  _6
REMARK    5  A    between atoms: _6  and  _7
REMARK    6  A    between atoms: _7  and  _8
REMARK    7  A    between atoms: _25  and  _26
REMARK    8  A    between atoms: _26  and  _27
REMARK    9  A    between atoms: _26  and  _29
REMARK   10  A    between atoms: _29  and  _30
REMARK   11  A    between atoms: _30  and  _31
REMARK   12  A    between atoms: _30  and  _32
REMARK   13  A    between atoms: _44  and  _45
REMARK   14  A    between atoms: _45  and  _46
REMARK   15  A    between atoms: _45  and  _48
REMARK   16  A    between atoms: _48  and  _49
REMARK   17  A    between atoms: _49  and  _50
REMARK   18  A    between atoms: _61  and  _62
REMARK   19  A    between atoms: _62  and  _63
REMARK   20  A    between atoms: _62  and  _65
REMARK   21  A    between atoms: _71  and  _72
REMARK   22  A    between atoms: _72  and  _73
REMARK   23  A    between atoms: _78  and  _79
REMARK   24  A    between atoms: _79  and  _80
REMARK   25  A    between atoms: _79  and  _82
REMARK   26  A    between atoms: _82  and  _83
REMARK                            x       y       z     vdW  Elec       q    Type
REMARK                         _______ _______ _______ _____ _____    ______ ____
ROOT
ATOM      1  CA  GLN A   3       8.583  -2.066  23.277  0.00  0.00    +0.159 C 
ENDROOT
BRANCH   1   2
ATOM      2  C   GLN A   3       7.262  -2.691  22.790  0.00  0.00    +0.234 C 
ATOM      3  O   GLN A   3       6.204  -2.060  22.827  0.00  0.00    -0.274 OA
ATOM      4  N   ALA A   4       7.336  -3.989  22.356  0.00  0.00    -0.303 N 
ATOM      5  H   ALA A   4       8.226  -4.470  22.263  0.00  0.00    +0.149 HD
BRANCH   4   6
ATOM      6  CA  ALA A   4       6.169  -4.694  21.823  0.00  0.00    +0.156 C 
ATOM      7  CB  ALA A   4       6.588  -5.912  21.003  0.00  0.00    +0.038 C 
BRANCH   6   8
ATOM      8  C   ALA A   4       5.280  -5.124  23.006  0.00  0.00    +0.233 C 
ATOM      9  N   GLY A   5       4.055  -4.511  23.061  0.00  0.00    -0.305 N 
ATOM     10  H   GLY A   5       3.810  -3.768  22.411  0.00  0.00    +0.149 HD
ATOM     11  O   ALA A   4       5.649  -5.966  23.826  0.00  0.00    -0.274 OA
BRANCH   9  12
ATOM     12  CA  GLY A   5       3.057  -4.856  24.057  0.00  0.00    +0.200 C 
BRANCH  12  13
ATOM     13  C   GLY A   5       3.299  -4.029  25.320  0.00  0.00    +0.231 C 
ATOM     14  O   GLY A   5       2.747  -2.947  25.518  0.00  0.00    -0.274 OA
ATOM     15  N   ASN A   6       4.195  -4.576  26.205  0.00  0.00    -0.304 N 
ATOM     16  H   ASN A   6       4.700  -5.427  25.967  0.00  0.00    +0.149 HD
BRANCH  15  17
ATOM     17  CA  ASN A   6       4.538  -3.937  27.472  0.00  0.00    +0.145 C 
BRANCH  17  18
ATOM     18  C   ASN A   6       5.742  -3.041  27.217  0.00  0.00    +0.245 C 
ATOM     19  O   ASN A   6       6.024  -2.582  26.111  0.00  0.00    -0.299 OA
ENDBRANCH  17  18
BRANCH  17  20
ATOM     20  CB  ASN A   6       4.905  -4.934  28.563  0.00  0.00    +0.125 C 
BRANCH  20  21
ATOM     21  CG  ASN A   6       5.139  -6.341  28.068  0.00  0.00    +0.213 C 
ATOM     22  ND2 ASN A   6       4.501  -7.341  28.739  0.00  0.00    -0.329 N 
ATOM     23 HD21 ASN A   6       4.625  -8.256  28.321  0.00  0.00    +0.145 HD
ATOM     24 HD22 ASN A   6       3.575  -7.187  29.116  0.00  0.00    +0.145 HD
ATOM     25  OD1 ASN A   6       5.910  -6.598  27.150  0.00  0.00    -0.276 OA
ENDBRANCH  20  21
ENDBRANCH  17  20
ENDBRANCH  15  17
ENDBRANCH  12  13
ENDBRANCH   9  12
ENDBRANCH   6   8
ENDBRANCH   4   6
ENDBRANCH   1   2
BRANCH   1  27
ATOM     26  C   LEU A   2       8.963   0.092  24.466  0.00  0.00    +0.234 C 
ATOM     27  N   GLN A   3       8.206  -1.031  24.238  0.00  0.00    -0.302 N 
ATOM     28  H   GLN A   3       7.357  -1.203  24.776  0.00  0.00    +0.150 HD
ATOM     29  O   LEU A   2      10.030   0.298  23.884  0.00  0.00    -0.274 OA
BRANCH  26  30
ATOM     30  CA  LEU A   2       8.381   1.065  25.519  0.00  0.00    +0.159 C 
BRANCH  30  33
ATOM     31  C   ARG A   1       7.976   3.172  24.285  0.00  0.00    +0.230 C 
ATOM     32  O   ARG A   1       9.096   3.620  24.516  0.00  0.00    -0.274 OA
ATOM     33  N   LEU A   2       7.505   1.995  24.813  0.00  0.00    -0.303 N 
ATOM     34  H   LEU A   2       6.664   1.589  24.418  0.00  0.00    +0.149 HD
BRANCH  31  35
ATOM     35  CA  ARG A   1       6.980   3.888  23.350  0.00  0.00    +0.138 C 
BRANCH  35  36
ATOM     36  N   ARG A   1       7.718   4.490  22.228  0.00  0.00    -0.320 NA
ATOM     37  H1  ARG A   1       8.705   4.235  22.305  0.00  0.00    +0.119 HD
ATOM     38  H2  ARG A   1       7.409   4.032  21.364  0.00  0.00    +0.119 HD
ENDBRANCH  35  36
BRANCH  35  39
ATOM     39  CB  ARG A   1       5.959   2.879  22.807  0.00  0.00    +0.031 C 
BRANCH  39  40
ATOM     40  CG  ARG A   1       6.306   2.403  21.393  0.00  0.00    +0.039 C 
BRANCH  40  41
ATOM     41  CD  ARG A   1       6.903   1.000  21.401  0.00  0.00    +0.196 C 
BRANCH  41  42
ATOM     42  NE  ARG A   1       6.138   0.107  20.519  0.00  0.00    -0.279 N 
ATOM     43  CZ  ARG A   1       6.493  -0.216  19.269  0.00  0.00    +0.341 C 
ATOM     44  NH2 ARG A   1       7.588   0.290  18.695  0.00  0.00    -0.292 N 
ATOM     45 HH21 ARG A   1       8.193   0.929  19.193  0.00  0.00    +0.255 HD
ATOM     46 HH22 ARG A   1       7.854   0.036  17.754  0.00  0.00    +0.255 HD
ATOM     47  NH1 ARG A   1       5.745  -1.066  18.570  0.00  0.00    -0.292 N 
ATOM     48 HH11 ARG A   1       5.950  -1.319  17.616  0.00  0.00    +0.255 HD
ATOM     49 HH12 ARG A   1       4.965  -1.565  19.018  0.00  0.00    +0.255 HD
ATOM     50  HE  ARG A   1       5.275  -0.310  20.861  0.00  0.00    +0.258 HD
ENDBRANCH  41  42
ENDBRANCH  40  41
ENDBRANCH  39  40
ENDBRANCH  35  39
ENDBRANCH  31  35
ENDBRANCH  30  33
BRANCH  30  51
ATOM     51  CB  LEU A   2       7.606   0.311  26.607  0.00  0.00    +0.034 C 
BRANCH  51  52
ATOM     52  CG  LEU A   2       6.654   1.206  27.428  0.00  0.00    -0.015 C 
ATOM     53  CD2 LEU A   2       7.022   1.235  28.912  0.00  0.00    +0.007 C 
ATOM     54  CD1 LEU A   2       5.212   0.721  27.264  0.00  0.00    +0.007 C 
ENDBRANCH  51  52
ENDBRANCH  30  51
ENDBRANCH  26  30
ENDBRANCH   1  27
BRANCH   1  55
ATOM     55  CB  GLN A   3       9.480  -3.117  23.946  0.00  0.00    +0.041 C 
BRANCH  55  56
ATOM     56  CG  GLN A   3       8.946  -3.580  25.299  0.00  0.00    +0.098 C 
BRANCH  56  57
ATOM     57  CD  GLN A   3       8.839  -5.089  25.301  0.00  0.00    +0.211 C 
ATOM     58  NE2 GLN A   3       8.611  -5.650  26.519  0.00  0.00    -0.329 N 
ATOM     59 HE21 GLN A   3       8.417  -5.100  27.350  0.00  0.00    +0.145 HD
ATOM     60 HE22 GLN A   3       8.521  -6.655  26.603  0.00  0.00    +0.145 HD
ATOM     61  OE1 GLN A   3       9.018  -5.780  24.298  0.00  0.00    -0.276 OA
ENDBRANCH  56  57
ENDBRANCH  55  56
ENDBRANCH   1  55
TORSDOF 23
ENDMDL
MODEL 16
REMARK VINA RESULT:      -6.0      2.274      6.438
REMARK  Name = RLQAGN-mmff94.pdb
REMARK  26 active torsions:
REMARK  status: ('A' for Active; 'I' for Inactive)
REMARK    1  A    between atoms: _1  and  _2
REMARK    2  A    between atoms: _2  and  _3
REMARK    3  A    between atoms: _2  and  _5
REMARK    4  A    between atoms: _5  and  _6
REMARK    5  A    between atoms: _6  and  _7
REMARK    6  A    between atoms: _7  and  _8
REMARK    7  A    between atoms: _25  and  _26
REMARK    8  A    between atoms: _26  and  _27
REMARK    9  A    between atoms: _26  and  _29
REMARK   10  A    between atoms: _29  and  _30
REMARK   11  A    between atoms: _30  and  _31
REMARK   12  A    between atoms: _30  and  _32
REMARK   13  A    between atoms: _44  and  _45
REMARK   14  A    between atoms: _45  and  _46
REMARK   15  A    between atoms: _45  and  _48
REMARK   16  A    between atoms: _48  and  _49
REMARK   17  A    between atoms: _49  and  _50
REMARK   18  A    between atoms: _61  and  _62
REMARK   19  A    between atoms: _62  and  _63
REMARK   20  A    between atoms: _62  and  _65
REMARK   21  A    between atoms: _71  and  _72
REMARK   22  A    between atoms: _72  and  _73
REMARK   23  A    between atoms: _78  and  _79
REMARK   24  A    between atoms: _79  and  _80
REMARK   25  A    between atoms: _79  and  _82
REMARK   26  A    between atoms: _82  and  _83
REMARK                            x       y       z     vdW  Elec       q    Type
REMARK                         _______ _______ _______ _____ _____    ______ ____
ROOT
ATOM      1  CA  GLN A   3       8.538   1.974  24.265  0.00  0.00    +0.159 C 
ENDROOT
BRANCH   1   2
ATOM      2  C   GLN A   3       8.352   1.037  25.473  0.00  0.00    +0.234 C 
ATOM      3  O   GLN A   3       9.126   0.102  25.683  0.00  0.00    -0.274 OA
ATOM      4  N   ALA A   4       7.262   1.288  26.266  0.00  0.00    -0.303 N 
ATOM      5  H   ALA A   4       6.676   2.105  26.122  0.00  0.00    +0.149 HD
BRANCH   4   6
ATOM      6  CA  ALA A   4       6.987   0.507  27.473  0.00  0.00    +0.156 C 
ATOM      7  CB  ALA A   4       7.122   1.367  28.728  0.00  0.00    +0.038 C 
BRANCH   6   8
ATOM      8  C   ALA A   4       5.560  -0.063  27.366  0.00  0.00    +0.233 C 
ATOM      9  N   GLY A   5       5.423  -1.121  26.505  0.00  0.00    -0.305 N 
ATOM     10  H   GLY A   5       6.200  -1.431  25.926  0.00  0.00    +0.149 HD
ATOM     11  O   ALA A   4       4.623   0.397  28.020  0.00  0.00    -0.274 OA
BRANCH   9  12
ATOM     12  CA  GLY A   5       4.170  -1.836  26.343  0.00  0.00    +0.200 C 
BRANCH  12  13
ATOM     13  C   GLY A   5       4.443  -3.340  26.354  0.00  0.00    +0.231 C 
ATOM     14  O   GLY A   5       3.548  -4.176  26.233  0.00  0.00    -0.274 OA
ATOM     15  N   ASN A   6       5.759  -3.686  26.532  0.00  0.00    -0.304 N 
ATOM     16  H   ASN A   6       6.460  -2.971  26.720  0.00  0.00    +0.149 HD
BRANCH  15  17
ATOM     17  CA  ASN A   6       6.211  -5.074  26.554  0.00  0.00    +0.145 C 
BRANCH  17  18
ATOM     18  C   ASN A   6       6.381  -5.473  28.013  0.00  0.00    +0.245 C 
ATOM     19  O   ASN A   6       7.159  -6.348  28.391  0.00  0.00    -0.299 OA
ENDBRANCH  17  18
BRANCH  17  20
ATOM     20  CB  ASN A   6       7.543  -5.280  25.842  0.00  0.00    +0.125 C 
BRANCH  20  21
ATOM     21  CG  ASN A   6       8.656  -4.389  26.337  0.00  0.00    +0.213 C 
ATOM     22  ND2 ASN A   6       9.800  -5.007  26.744  0.00  0.00    -0.329 N 
ATOM     23 HD21 ASN A   6      10.546  -4.365  26.990  0.00  0.00    +0.145 HD
ATOM     24 HD22 ASN A   6      10.122  -5.842  26.271  0.00  0.00    +0.145 HD
ATOM     25  OD1 ASN A   6       8.536  -3.172  26.433  0.00  0.00    -0.276 OA
ENDBRANCH  20  21
ENDBRANCH  17  20
ENDBRANCH  15  17
ENDBRANCH  12  13
ENDBRANCH   9  12
ENDBRANCH   6   8
ENDBRANCH   4   6
ENDBRANCH   1   2
BRANCH   1  27
ATOM     26  C   LEU A   2       8.932   1.094  21.965  0.00  0.00    +0.234 C 
ATOM     27  N   GLN A   3       8.151   1.194  23.090  0.00  0.00    -0.302 N 
ATOM     28  H   GLN A   3       7.234   0.750  23.127  0.00  0.00    +0.150 HD
ATOM     29  O   LEU A   2      10.013   1.675  21.860  0.00  0.00    -0.274 OA
BRANCH  26  30
ATOM     30  CA  LEU A   2       8.339   0.215  20.840  0.00  0.00    +0.159 C 
BRANCH  30  33
ATOM     31  C   ARG A   1       8.599  -1.924  22.059  0.00  0.00    +0.230 C 
ATOM     32  O   ARG A   1       9.823  -1.934  21.948  0.00  0.00    -0.274 OA
ATOM     33  N   LEU A   2       7.791  -0.983  21.468  0.00  0.00    -0.303 N 
ATOM     34  H   LEU A   2       6.826  -0.915  21.771  0.00  0.00    +0.149 HD
BRANCH  31  35
ATOM     35  CA  ARG A   1       7.841  -2.970  22.900  0.00  0.00    +0.138 C 
BRANCH  35  36
ATOM     36  N   ARG A   1       7.112  -2.285  23.980  0.00  0.00    -0.320 NA
ATOM     37  H1  ARG A   1       7.736  -1.610  24.425  0.00  0.00    +0.119 HD
ATOM     38  H2  ARG A   1       6.382  -1.705  23.551  0.00  0.00    +0.119 HD
ENDBRANCH  35  36
BRANCH  35  39
ATOM     39  CB  ARG A   1       6.845  -3.728  22.011  0.00  0.00    +0.031 C 
BRANCH  39  40
ATOM     40  CG  ARG A   1       7.135  -5.232  21.962  0.00  0.00    +0.039 C 
BRANCH  40  41
ATOM     41  CD  ARG A   1       5.885  -6.037  21.626  0.00  0.00    +0.196 C 
BRANCH  41  42
ATOM     42  NE  ARG A   1       5.340  -6.673  22.834  0.00  0.00    -0.279 N 
ATOM     43  CZ  ARG A   1       4.304  -6.204  23.540  0.00  0.00    +0.341 C 
ATOM     44  NH2 ARG A   1       3.686  -5.065  23.212  0.00  0.00    -0.292 N 
ATOM     45 HH21 ARG A   1       3.976  -4.525  22.409  0.00  0.00    +0.255 HD
ATOM     46 HH22 ARG A   1       2.900  -4.720  23.746  0.00  0.00    +0.255 HD
ATOM     47  NH1 ARG A   1       3.865  -6.881  24.599  0.00  0.00    -0.292 N 
ATOM     48 HH11 ARG A   1       3.110  -6.556  25.182  0.00  0.00    +0.255 HD
ATOM     49 HH12 ARG A   1       4.238  -7.816  24.810  0.00  0.00    +0.255 HD
ATOM     50  HE  ARG A   1       5.760  -7.534  23.176  0.00  0.00    +0.258 HD
ENDBRANCH  41  42
ENDBRANCH  40  41
ENDBRANCH  39  40
ENDBRANCH  35  39
ENDBRANCH  31  35
ENDBRANCH  30  33
BRANCH  30  51
ATOM     51  CB  LEU A   2       7.251   0.964  20.060  0.00  0.00    +0.034 C 
BRANCH  51  52
ATOM     52  CG  LEU A   2       6.789   0.236  18.780  0.00  0.00    -0.015 C 
ATOM     53  CD2 LEU A   2       6.211   1.202  17.743  0.00  0.00    +0.007 C 
ATOM     54  CD1 LEU A   2       5.747  -0.827  19.131  0.00  0.00    +0.007 C 
ENDBRANCH  51  52
ENDBRANCH  30  51
ENDBRANCH  26  30
ENDBRANCH   1  27
BRANCH   1  55
ATOM     55  CB  GLN A   3       7.658   3.224  24.392  0.00  0.00    +0.041 C 
BRANCH  55  56
ATOM     56  CG  GLN A   3       8.165   4.397  23.557  0.00  0.00    +0.098 C 
BRANCH  56  57
ATOM     57  CD  GLN A   3       7.112   4.773  22.539  0.00  0.00    +0.211 C 
ATOM     58  NE2 GLN A   3       7.485   5.734  21.650  0.00  0.00    -0.329 N 
ATOM     59 HE21 GLN A   3       8.432   6.096  21.599  0.00  0.00    +0.145 HD
ATOM     60 HE22 GLN A   3       6.838   6.037  20.933  0.00  0.00    +0.145 HD
ATOM     61  OE1 GLN A   3       5.971   4.312  22.545  0.00  0.00    -0.276 OA
ENDBRANCH  56  57
ENDBRANCH  55  56
ENDBRANCH   1  55
TORSDOF 23
ENDMDL
MODEL 17
REMARK VINA RESULT:      -6.0      2.204      7.841
REMARK  Name = RLQAGN-mmff94.pdb
REMARK  26 active torsions:
REMARK  status: ('A' for Active; 'I' for Inactive)
REMARK    1  A    between atoms: _1  and  _2
REMARK    2  A    between atoms: _2  and  _3
REMARK    3  A    between atoms: _2  and  _5
REMARK    4  A    between atoms: _5  and  _6
REMARK    5  A    between atoms: _6  and  _7
REMARK    6  A    between atoms: _7  and  _8
REMARK    7  A    between atoms: _25  and  _26
REMARK    8  A    between atoms: _26  and  _27
REMARK    9  A    between atoms: _26  and  _29
REMARK   10  A    between atoms: _29  and  _30
REMARK   11  A    between atoms: _30  and  _31
REMARK   12  A    between atoms: _30  and  _32
REMARK   13  A    between atoms: _44  and  _45
REMARK   14  A    between atoms: _45  and  _46
REMARK   15  A    between atoms: _45  and  _48
REMARK   16  A    between atoms: _48  and  _49
REMARK   17  A    between atoms: _49  and  _50
REMARK   18  A    between atoms: _61  and  _62
REMARK   19  A    between atoms: _62  and  _63
REMARK   20  A    between atoms: _62  and  _65
REMARK   21  A    between atoms: _71  and  _72
REMARK   22  A    between atoms: _72  and  _73
REMARK   23  A    between atoms: _78  and  _79
REMARK   24  A    between atoms: _79  and  _80
REMARK   25  A    between atoms: _79  and  _82
REMARK   26  A    between atoms: _82  and  _83
REMARK                            x       y       z     vdW  Elec       q    Type
REMARK                         _______ _______ _______ _____ _____    ______ ____
ROOT
ATOM      1  CA  GLN A   3       3.984  -3.069  27.871  0.00  0.00    +0.159 C 
ENDROOT
BRANCH   1   2
ATOM      2  C   GLN A   3       4.604  -1.660  27.901  0.00  0.00    +0.234 C 
ATOM      3  O   GLN A   3       4.431  -0.904  28.858  0.00  0.00    -0.274 OA
ATOM      4  N   ALA A   4       5.320  -1.294  26.790  0.00  0.00    -0.303 N 
ATOM      5  H   ALA A   4       5.515  -1.953  26.041  0.00  0.00    +0.149 HD
BRANCH   4   6
ATOM      6  CA  ALA A   4       6.002  -0.003  26.699  0.00  0.00    +0.156 C 
ATOM      7  CB  ALA A   4       7.442  -0.173  26.219  0.00  0.00    +0.038 C 
BRANCH   6   8
ATOM      8  C   ALA A   4       5.215   0.894  25.725  0.00  0.00    +0.233 C 
ATOM      9  N   GLY A   5       5.944   1.380  24.669  0.00  0.00    -0.305 N 
ATOM     10  H   GLY A   5       6.946   1.218  24.605  0.00  0.00    +0.149 HD
ATOM     11  O   ALA A   4       4.019   1.140  25.886  0.00  0.00    -0.274 OA
BRANCH   9  12
ATOM     12  CA  GLY A   5       5.346   2.171  23.609  0.00  0.00    +0.200 C 
BRANCH  12  13
ATOM     13  C   GLY A   5       6.347   2.314  22.462  0.00  0.00    +0.231 C 
ATOM     14  O   GLY A   5       6.767   3.407  22.084  0.00  0.00    -0.274 OA
ATOM     15  N   ASN A   6       6.721   1.132  21.873  0.00  0.00    -0.304 N 
ATOM     16  H   ASN A   6       6.285   0.256  22.152  0.00  0.00    +0.149 HD
BRANCH  15  17
ATOM     17  CA  ASN A   6       7.680   1.072  20.774  0.00  0.00    +0.145 C 
BRANCH  17  18
ATOM     18  C   ASN A   6       7.113   0.122  19.729  0.00  0.00    +0.245 C 
ATOM     19  O   ASN A   6       7.392   0.183  18.532  0.00  0.00    -0.299 OA
ENDBRANCH  17  18
BRANCH  17  20
ATOM     20  CB  ASN A   6       9.047   0.553  21.201  0.00  0.00    +0.125 C 
BRANCH  20  21
ATOM     21  CG  ASN A   6       9.733   1.397  22.248  0.00  0.00    +0.213 C 
ATOM     22  ND2 ASN A   6      10.480   2.444  21.798  0.00  0.00    -0.329 N 
ATOM     23 HD21 ASN A   6      10.854   3.027  22.539  0.00  0.00    +0.145 HD
ATOM     24 HD22 ASN A   6      10.184   2.964  20.981  0.00  0.00    +0.145 HD
ATOM     25  OD1 ASN A   6       9.685   1.134  23.445  0.00  0.00    -0.276 OA
ENDBRANCH  20  21
ENDBRANCH  17  20
ENDBRANCH  15  17
ENDBRANCH  12  13
ENDBRANCH   9  12
ENDBRANCH   6   8
ENDBRANCH   4   6
ENDBRANCH   1   2
BRANCH   1  27
ATOM     26  C   LEU A   2       3.351  -3.996  25.644  0.00  0.00    +0.234 C 
ATOM     27  N   GLN A   3       4.307  -3.621  26.555  0.00  0.00    -0.302 N 
ATOM     28  H   GLN A   3       5.297  -3.757  26.355  0.00  0.00    +0.150 HD
ATOM     29  O   LEU A   2       2.145  -3.911  25.882  0.00  0.00    -0.274 OA
BRANCH  26  30
ATOM     30  CA  LEU A   2       3.906  -4.550  24.311  0.00  0.00    +0.159 C 
BRANCH  30  33
ATOM     31  C   ARG A   1       5.464  -3.674  22.598  0.00  0.00    +0.230 C 
ATOM     32  O   ARG A   1       5.185  -4.547  21.780  0.00  0.00    -0.274 OA
ATOM     33  N   LEU A   2       4.975  -3.653  23.881  0.00  0.00    -0.303 N 
ATOM     34  H   LEU A   2       5.078  -2.803  24.425  0.00  0.00    +0.149 HD
BRANCH  31  35
ATOM     35  CA  ARG A   1       6.387  -2.488  22.254  0.00  0.00    +0.138 C 
BRANCH  35  36
ATOM     36  N   ARG A   1       6.151  -1.398  23.214  0.00  0.00    -0.320 NA
ATOM     37  H1  ARG A   1       6.897  -0.706  23.121  0.00  0.00    +0.119 HD
ATOM     38  H2  ARG A   1       5.306  -0.895  22.920  0.00  0.00    +0.119 HD
ENDBRANCH  35  36
BRANCH  35  39
ATOM     39  CB  ARG A   1       7.855  -2.932  22.335  0.00  0.00    +0.031 C 
BRANCH  39  40
ATOM     40  CG  ARG A   1       8.625  -2.196  23.436  0.00  0.00    +0.039 C 
BRANCH  40  41
ATOM     41  CD  ARG A   1       9.468  -3.153  24.271  0.00  0.00    +0.196 C 
BRANCH  41  42
ATOM     42  NE  ARG A   1       8.616  -3.942  25.173  0.00  0.00    -0.279 N 
ATOM     43  CZ  ARG A   1       9.005  -5.053  25.809  0.00  0.00    +0.341 C 
ATOM     44  NH2 ARG A   1      10.227  -5.568  25.645  0.00  0.00    -0.292 N 
ATOM     45 HH21 ARG A   1      10.904  -5.127  25.038  0.00  0.00    +0.255 HD
ATOM     46 HH22 ARG A   1      10.517  -6.404  26.134  0.00  0.00    +0.255 HD
ATOM     47  NH1 ARG A   1       8.163  -5.670  26.635  0.00  0.00    -0.292 N 
ATOM     48 HH11 ARG A   1       8.395  -6.526  27.115  0.00  0.00    +0.255 HD
ATOM     49 HH12 ARG A   1       7.261  -5.240  26.877  0.00  0.00    +0.255 HD
ATOM     50  HE  ARG A   1       7.660  -3.640  25.343  0.00  0.00    +0.258 HD
ENDBRANCH  41  42
ENDBRANCH  40  41
ENDBRANCH  39  40
ENDBRANCH  35  39
ENDBRANCH  31  35
ENDBRANCH  30  33
BRANCH  30  51
ATOM     51  CB  LEU A   2       4.433  -5.981  24.476  0.00  0.00    +0.034 C 
BRANCH  51  52
ATOM     52  CG  LEU A   2       3.404  -7.071  24.110  0.00  0.00    -0.015 C 
ATOM     53  CD2 LEU A   2       2.338  -6.556  23.141  0.00  0.00    +0.007 C 
ATOM     54  CD1 LEU A   2       2.733  -7.603  25.378  0.00  0.00    +0.007 C 
ENDBRANCH  51  52
ENDBRANCH  30  51
ENDBRANCH  26  30
ENDBRANCH   1  27
BRANCH   1  55
ATOM     55  CB  GLN A   3       4.566  -3.955  28.980  0.00  0.00    +0.041 C 
BRANCH  55  56
ATOM     56  CG  GLN A   3       4.244  -5.435  28.791  0.00  0.00    +0.098 C 
BRANCH  56  57
ATOM     57  CD  GLN A   3       5.486  -6.253  29.063  0.00  0.00    +0.211 C 
ATOM     58  NE2 GLN A   3       5.526  -7.464  28.446  0.00  0.00    -0.329 N 
ATOM     59 HE21 GLN A   3       4.832  -7.758  27.767  0.00  0.00    +0.145 HD
ATOM     60 HE22 GLN A   3       6.328  -8.069  28.573  0.00  0.00    +0.145 HD
ATOM     61  OE1 GLN A   3       6.371  -5.898  29.843  0.00  0.00    -0.276 OA
ENDBRANCH  56  57
ENDBRANCH  55  56
ENDBRANCH   1  55
TORSDOF 23
ENDMDL
MODEL 18
REMARK VINA RESULT:      -6.0      2.222      7.554
REMARK  Name = RLQAGN-mmff94.pdb
REMARK  26 active torsions:
REMARK  status: ('A' for Active; 'I' for Inactive)
REMARK    1  A    between atoms: _1  and  _2
REMARK    2  A    between atoms: _2  and  _3
REMARK    3  A    between atoms: _2  and  _5
REMARK    4  A    between atoms: _5  and  _6
REMARK    5  A    between atoms: _6  and  _7
REMARK    6  A    between atoms: _7  and  _8
REMARK    7  A    between atoms: _25  and  _26
REMARK    8  A    between atoms: _26  and  _27
REMARK    9  A    between atoms: _26  and  _29
REMARK   10  A    between atoms: _29  and  _30
REMARK   11  A    between atoms: _30  and  _31
REMARK   12  A    between atoms: _30  and  _32
REMARK   13  A    between atoms: _44  and  _45
REMARK   14  A    between atoms: _45  and  _46
REMARK   15  A    between atoms: _45  and  _48
REMARK   16  A    between atoms: _48  and  _49
REMARK   17  A    between atoms: _49  and  _50
REMARK   18  A    between atoms: _61  and  _62
REMARK   19  A    between atoms: _62  and  _63
REMARK   20  A    between atoms: _62  and  _65
REMARK   21  A    between atoms: _71  and  _72
REMARK   22  A    between atoms: _72  and  _73
REMARK   23  A    between atoms: _78  and  _79
REMARK   24  A    between atoms: _79  and  _80
REMARK   25  A    between atoms: _79  and  _82
REMARK   26  A    between atoms: _82  and  _83
REMARK                            x       y       z     vdW  Elec       q    Type
REMARK                         _______ _______ _______ _____ _____    ______ ____
ROOT
ATOM      1  CA  GLN A   3       9.210  -0.212  24.326  0.00  0.00    +0.159 C 
ENDROOT
BRANCH   1   2
ATOM      2  C   GLN A   3       9.244  -1.690  23.893  0.00  0.00    +0.234 C 
ATOM      3  O   GLN A   3       9.644  -2.020  22.775  0.00  0.00    -0.274 OA
ATOM      4  N   ALA A   4       8.771  -2.596  24.807  0.00  0.00    -0.303 N 
ATOM      5  H   ALA A   4       8.513  -2.316  25.749  0.00  0.00    +0.149 HD
BRANCH   4   6
ATOM      6  CA  ALA A   4       8.786  -4.036  24.548  0.00  0.00    +0.156 C 
ATOM      7  CB  ALA A   4       8.739  -4.830  25.852  0.00  0.00    +0.038 C 
BRANCH   6   8
ATOM      8  C   ALA A   4       7.570  -4.383  23.667  0.00  0.00    +0.233 C 
ATOM      9  N   GLY A   5       6.763  -3.321  23.351  0.00  0.00    -0.305 N 
ATOM     10  H   GLY A   5       6.926  -2.400  23.752  0.00  0.00    +0.149 HD
ATOM     11  O   ALA A   4       7.357  -5.530  23.273  0.00  0.00    -0.274 OA
BRANCH   9  12
ATOM     12  CA  GLY A   5       5.622  -3.447  22.462  0.00  0.00    +0.200 C 
BRANCH  12  13
ATOM     13  C   GLY A   5       5.901  -2.676  21.172  0.00  0.00    +0.231 C 
ATOM     14  O   GLY A   5       5.518  -3.070  20.071  0.00  0.00    -0.274 OA
ATOM     15  N   ASN A   6       6.630  -1.524  21.335  0.00  0.00    -0.304 N 
ATOM     16  H   ASN A   6       7.007  -1.277  22.248  0.00  0.00    +0.149 HD
BRANCH  15  17
ATOM     17  CA  ASN A   6       6.977  -0.650  20.219  0.00  0.00    +0.145 C 
BRANCH  17  18
ATOM     18  C   ASN A   6       8.373  -0.104  20.488  0.00  0.00    +0.245 C 
ATOM     19  O   ASN A   6       8.585   0.980  21.029  0.00  0.00    -0.299 OA
ENDBRANCH  17  18
BRANCH  17  20
ATOM     20  CB  ASN A   6       6.024   0.528  20.063  0.00  0.00    +0.125 C 
BRANCH  20  21
ATOM     21  CG  ASN A   6       5.555   0.766  18.648  0.00  0.00    +0.213 C 
ATOM     22  ND2 ASN A   6       4.819   1.891  18.428  0.00  0.00    -0.329 N 
ATOM     23 HD21 ASN A   6       4.597   2.049  17.451  0.00  0.00    +0.145 HD
ATOM     24 HD22 ASN A   6       5.023   2.739  18.941  0.00  0.00    +0.145 HD
ATOM     25  OD1 ASN A   6       5.763  -0.032  17.740  0.00  0.00    -0.276 OA
ENDBRANCH  20  21
ENDBRANCH  17  20
ENDBRANCH  15  17
ENDBRANCH  12  13
ENDBRANCH   9  12
ENDBRANCH   6   8
ENDBRANCH   4   6
ENDBRANCH   1   2
BRANCH   1  27
ATOM     26  C   LEU A   2       6.838   0.171  24.993  0.00  0.00    +0.234 C 
ATOM     27  N   GLN A   3       8.142  -0.112  25.320  0.00  0.00    -0.302 N 
ATOM     28  H   GLN A   3       8.421  -0.221  26.294  0.00  0.00    +0.150 HD
ATOM     29  O   LEU A   2       6.480   0.380  23.832  0.00  0.00    -0.274 OA
BRANCH  26  30
ATOM     30  CA  LEU A   2       5.865   0.227  26.194  0.00  0.00    +0.159 C 
BRANCH  30  33
ATOM     31  C   ARG A   1       4.121  -1.505  26.486  0.00  0.00    +0.230 C 
ATOM     32  O   ARG A   1       3.196  -0.698  26.449  0.00  0.00    -0.274 OA
ATOM     33  N   LEU A   2       5.446  -1.143  26.475  0.00  0.00    -0.303 N 
ATOM     34  H   LEU A   2       6.142  -1.859  26.298  0.00  0.00    +0.149 HD
BRANCH  31  35
ATOM     35  CA  ARG A   1       3.882  -3.028  26.531  0.00  0.00    +0.138 C 
BRANCH  35  36
ATOM     36  N   ARG A   1       3.354  -3.472  25.230  0.00  0.00    -0.320 NA
ATOM     37  H1  ARG A   1       3.122  -4.466  25.288  0.00  0.00    +0.119 HD
ATOM     38  H2  ARG A   1       2.449  -3.013  25.083  0.00  0.00    +0.119 HD
ENDBRANCH  35  36
BRANCH  35  39
ATOM     39  CB  ARG A   1       5.204  -3.753  26.821  0.00  0.00    +0.031 C 
BRANCH  39  40
ATOM     40  CG  ARG A   1       5.024  -4.928  27.787  0.00  0.00    +0.039 C 
BRANCH  40  41
ATOM     41  CD  ARG A   1       5.524  -6.236  27.184  0.00  0.00    +0.196 C 
BRANCH  41  42
ATOM     42  NE  ARG A   1       5.401  -6.210  25.720  0.00  0.00    -0.279 N 
ATOM     43  CZ  ARG A   1       4.487  -6.893  25.020  0.00  0.00    +0.341 C 
ATOM     44  NH2 ARG A   1       3.606  -7.703  25.614  0.00  0.00    -0.292 N 
ATOM     45 HH21 ARG A   1       3.595  -7.819  26.618  0.00  0.00    +0.255 HD
ATOM     46 HH22 ARG A   1       2.914  -8.211  25.081  0.00  0.00    +0.255 HD
ATOM     47  NH1 ARG A   1       4.440  -6.768  23.696  0.00  0.00    -0.292 N 
ATOM     48 HH11 ARG A   1       3.792  -7.282  23.120  0.00  0.00    +0.255 HD
ATOM     49 HH12 ARG A   1       5.021  -6.067  23.218  0.00  0.00    +0.255 HD
ATOM     50  HE  ARG A   1       6.044  -5.639  25.177  0.00  0.00    +0.258 HD
ENDBRANCH  41  42
ENDBRANCH  40  41
ENDBRANCH  39  40
ENDBRANCH  35  39
ENDBRANCH  31  35
ENDBRANCH  30  33
BRANCH  30  51
ATOM     51  CB  LEU A   2       6.533   0.852  27.425  0.00  0.00    +0.034 C 
BRANCH  51  52
ATOM     52  CG  LEU A   2       5.850   2.147  27.914  0.00  0.00    -0.015 C 
ATOM     53  CD2 LEU A   2       4.447   1.889  28.464  0.00  0.00    +0.007 C 
ATOM     54  CD1 LEU A   2       5.777   3.161  26.770  0.00  0.00    +0.007 C 
ENDBRANCH  51  52
ENDBRANCH  30  51
ENDBRANCH  26  30
ENDBRANCH   1  27
BRANCH   1  55
ATOM     55  CB  GLN A   3      10.551   0.217  24.936  0.00  0.00    +0.041 C 
BRANCH  55  56
ATOM     56  CG  GLN A   3      11.228   1.339  24.152  0.00  0.00    +0.098 C 
BRANCH  56  57
ATOM     57  CD  GLN A   3      10.193   2.372  23.768  0.00  0.00    +0.211 C 
ATOM     58  NE2 GLN A   3      10.290   2.842  22.495  0.00  0.00    -0.329 N 
ATOM     59 HE21 GLN A   3      10.935   2.454  21.815  0.00  0.00    +0.145 HD
ATOM     60 HE22 GLN A   3       9.630   3.532  22.160  0.00  0.00    +0.145 HD
ATOM     61  OE1 GLN A   3       9.363   2.823  24.559  0.00  0.00    -0.276 OA
ENDBRANCH  56  57
ENDBRANCH  55  56
ENDBRANCH   1  55
TORSDOF 23
ENDMDL
MODEL 19
REMARK VINA RESULT:      -6.0      2.212      6.726
REMARK  Name = RLQAGN-mmff94.pdb
REMARK  26 active torsions:
REMARK  status: ('A' for Active; 'I' for Inactive)
REMARK    1  A    between atoms: _1  and  _2
REMARK    2  A    between atoms: _2  and  _3
REMARK    3  A    between atoms: _2  and  _5
REMARK    4  A    between atoms: _5  and  _6
REMARK    5  A    between atoms: _6  and  _7
REMARK    6  A    between atoms: _7  and  _8
REMARK    7  A    between atoms: _25  and  _26
REMARK    8  A    between atoms: _26  and  _27
REMARK    9  A    between atoms: _26  and  _29
REMARK   10  A    between atoms: _29  and  _30
REMARK   11  A    between atoms: _30  and  _31
REMARK   12  A    between atoms: _30  and  _32
REMARK   13  A    between atoms: _44  and  _45
REMARK   14  A    between atoms: _45  and  _46
REMARK   15  A    between atoms: _45  and  _48
REMARK   16  A    between atoms: _48  and  _49
REMARK   17  A    between atoms: _49  and  _50
REMARK   18  A    between atoms: _61  and  _62
REMARK   19  A    between atoms: _62  and  _63
REMARK   20  A    between atoms: _62  and  _65
REMARK   21  A    between atoms: _71  and  _72
REMARK   22  A    between atoms: _72  and  _73
REMARK   23  A    between atoms: _78  and  _79
REMARK   24  A    between atoms: _79  and  _80
REMARK   25  A    between atoms: _79  and  _82
REMARK   26  A    between atoms: _82  and  _83
REMARK                            x       y       z     vdW  Elec       q    Type
REMARK                         _______ _______ _______ _____ _____    ______ ____
ROOT
ATOM      1  CA  GLN A   3       9.485  -0.069  24.934  0.00  0.00    +0.159 C 
ENDROOT
BRANCH   1   2
ATOM      2  C   GLN A   3       8.491   0.106  26.098  0.00  0.00    +0.234 C 
ATOM      3  O   GLN A   3       8.531  -0.625  27.088  0.00  0.00    -0.274 OA
ATOM      4  N   ALA A   4       7.550   1.091  25.941  0.00  0.00    -0.303 N 
ATOM      5  H   ALA A   4       7.576   1.732  25.153  0.00  0.00    +0.149 HD
BRANCH   4   6
ATOM      6  CA  ALA A   4       6.572   1.399  26.985  0.00  0.00    +0.156 C 
ATOM      7  CB  ALA A   4       6.015   2.811  26.818  0.00  0.00    +0.038 C 
BRANCH   6   8
ATOM      8  C   ALA A   4       5.435   0.363  26.906  0.00  0.00    +0.233 C 
ATOM      9  N   GLY A   5       5.586  -0.725  27.726  0.00  0.00    -0.305 N 
ATOM     10  H   GLY A   5       6.435  -0.858  28.270  0.00  0.00    +0.149 HD
ATOM     11  O   ALA A   4       4.462   0.517  26.166  0.00  0.00    -0.274 OA
BRANCH   9  12
ATOM     12  CA  GLY A   5       4.573  -1.758  27.844  0.00  0.00    +0.200 C 
BRANCH  12  13
ATOM     13  C   GLY A   5       5.042  -3.011  27.103  0.00  0.00    +0.231 C 
ATOM     14  O   GLY A   5       4.261  -3.780  26.544  0.00  0.00    -0.274 OA
ATOM     15  N   ASN A   6       6.398  -3.223  27.130  0.00  0.00    -0.304 N 
ATOM     16  H   ASN A   6       7.004  -2.616  27.679  0.00  0.00    +0.149 HD
BRANCH  15  17
ATOM     17  CA  ASN A   6       7.029  -4.358  26.465  0.00  0.00    +0.145 C 
BRANCH  17  18
ATOM     18  C   ASN A   6       7.136  -5.482  27.486  0.00  0.00    +0.245 C 
ATOM     19  O   ASN A   6       6.595  -5.448  28.591  0.00  0.00    -0.299 OA
ENDBRANCH  17  18
BRANCH  17  20
ATOM     20  CB  ASN A   6       8.428  -4.046  25.948  0.00  0.00    +0.125 C 
BRANCH  20  21
ATOM     21  CG  ASN A   6       9.032  -5.131  25.091  0.00  0.00    +0.213 C 
ATOM     22  ND2 ASN A   6      10.109  -5.789  25.604  0.00  0.00    -0.329 N 
ATOM     23 HD21 ASN A   6      10.428  -6.561  25.028  0.00  0.00    +0.145 HD
ATOM     24 HD22 ASN A   6      10.166  -5.971  26.597  0.00  0.00    +0.145 HD
ATOM     25  OD1 ASN A   6       8.627  -5.383  23.961  0.00  0.00    -0.276 OA
ENDBRANCH  20  21
ENDBRANCH  17  20
ENDBRANCH  15  17
ENDBRANCH  12  13
ENDBRANCH   9  12
ENDBRANCH   6   8
ENDBRANCH   4   6
ENDBRANCH   1   2
BRANCH   1  27
ATOM     26  C   LEU A   2       9.002  -1.643  23.062  0.00  0.00    +0.234 C 
ATOM     27  N   GLN A   3       8.690  -0.524  23.794  0.00  0.00    -0.302 N 
ATOM     28  H   GLN A   3       7.899   0.063  23.533  0.00  0.00    +0.150 HD
ATOM     29  O   LEU A   2       9.991  -2.336  23.306  0.00  0.00    -0.274 OA
BRANCH  26  30
ATOM     30  CA  LEU A   2       8.028  -1.952  21.901  0.00  0.00    +0.159 C 
BRANCH  30  33
ATOM     31  C   ARG A   1       6.222  -3.603  21.527  0.00  0.00    +0.230 C 
ATOM     32  O   ARG A   1       5.677  -2.933  20.653  0.00  0.00    -0.274 OA
ATOM     33  N   LEU A   2       7.300  -3.166  22.257  0.00  0.00    -0.303 N 
ATOM     34  H   LEU A   2       7.820  -3.843  22.805  0.00  0.00    +0.149 HD
BRANCH  31  35
ATOM     35  CA  ARG A   1       5.754  -5.029  21.882  0.00  0.00    +0.138 C 
BRANCH  35  36
ATOM     36  N   ARG A   1       6.905  -5.945  21.816  0.00  0.00    -0.320 NA
ATOM     37  H1  ARG A   1       7.366  -5.965  22.728  0.00  0.00    +0.119 HD
ATOM     38  H2  ARG A   1       6.544  -6.898  21.698  0.00  0.00    +0.119 HD
ENDBRANCH  35  36
BRANCH  35  39
ATOM     39  CB  ARG A   1       5.168  -5.046  23.301  0.00  0.00    +0.031 C 
BRANCH  39  40
ATOM     40  CG  ARG A   1       5.223  -6.439  23.937  0.00  0.00    +0.039 C 
BRANCH  40  41
ATOM     41  CD  ARG A   1       3.970  -6.736  24.752  0.00  0.00    +0.196 C 
BRANCH  41  42
ATOM     42  NE  ARG A   1       4.324  -7.107  26.129  0.00  0.00    -0.279 N 
ATOM     43  CZ  ARG A   1       3.586  -6.820  27.209  0.00  0.00    +0.341 C 
ATOM     44  NH2 ARG A   1       2.450  -6.122  27.121  0.00  0.00    -0.292 N 
ATOM     45 HH21 ARG A   1       2.104  -5.796  26.228  0.00  0.00    +0.255 HD
ATOM     46 HH22 ARG A   1       1.894  -5.915  27.939  0.00  0.00    +0.255 HD
ATOM     47  NH1 ARG A   1       3.982  -7.237  28.409  0.00  0.00    -0.292 N 
ATOM     48 HH11 ARG A   1       3.480  -7.023  29.257  0.00  0.00    +0.255 HD
ATOM     49 HH12 ARG A   1       4.784  -7.874  28.501  0.00  0.00    +0.255 HD
ATOM     50  HE  ARG A   1       5.185  -7.621  26.300  0.00  0.00    +0.258 HD
ENDBRANCH  41  42
ENDBRANCH  40  41
ENDBRANCH  39  40
ENDBRANCH  35  39
ENDBRANCH  31  35
ENDBRANCH  30  33
BRANCH  30  51
ATOM     51  CB  LEU A   2       7.056  -0.789  21.663  0.00  0.00    +0.034 C 
BRANCH  51  52
ATOM     52  CG  LEU A   2       7.630   0.329  20.767  0.00  0.00    -0.015 C 
ATOM     53  CD2 LEU A   2       6.833   1.629  20.884  0.00  0.00    +0.007 C 
ATOM     54  CD1 LEU A   2       7.653  -0.132  19.308  0.00  0.00    +0.007 C 
ENDBRANCH  51  52
ENDBRANCH  30  51
ENDBRANCH  26  30
ENDBRANCH   1  27
BRANCH   1  55
ATOM     55  CB  GLN A   3      10.188   1.254  24.602  0.00  0.00    +0.041 C 
BRANCH  55  56
ATOM     56  CG  GLN A   3       9.768   1.830  23.253  0.00  0.00    +0.098 C 
BRANCH  56  57
ATOM     57  CD  GLN A   3       9.101   3.170  23.470  0.00  0.00    +0.211 C 
ATOM     58  NE2 GLN A   3       9.913   4.250  23.319  0.00  0.00    -0.329 N 
ATOM     59 HE21 GLN A   3      10.867   4.178  22.979  0.00  0.00    +0.145 HD
ATOM     60 HE22 GLN A   3       9.540   5.183  23.443  0.00  0.00    +0.145 HD
ATOM     61  OE1 GLN A   3       7.930   3.291  23.832  0.00  0.00    -0.276 OA
ENDBRANCH  56  57
ENDBRANCH  55  56
ENDBRANCH   1  55
TORSDOF 23
ENDMDL
MODEL 20
REMARK VINA RESULT:      -6.0      2.667      8.081
REMARK  Name = RLQAGN-mmff94.pdb
REMARK  26 active torsions:
REMARK  status: ('A' for Active; 'I' for Inactive)
REMARK    1  A    between atoms: _1  and  _2
REMARK    2  A    between atoms: _2  and  _3
REMARK    3  A    between atoms: _2  and  _5
REMARK    4  A    between atoms: _5  and  _6
REMARK    5  A    between atoms: _6  and  _7
REMARK    6  A    between atoms: _7  and  _8
REMARK    7  A    between atoms: _25  and  _26
REMARK    8  A    between atoms: _26  and  _27
REMARK    9  A    between atoms: _26  and  _29
REMARK   10  A    between atoms: _29  and  _30
REMARK   11  A    between atoms: _30  and  _31
REMARK   12  A    between atoms: _30  and  _32
REMARK   13  A    between atoms: _44  and  _45
REMARK   14  A    between atoms: _45  and  _46
REMARK   15  A    between atoms: _45  and  _48
REMARK   16  A    between atoms: _48  and  _49
REMARK   17  A    between atoms: _49  and  _50
REMARK   18  A    between atoms: _61  and  _62
REMARK   19  A    between atoms: _62  and  _63
REMARK   20  A    between atoms: _62  and  _65
REMARK   21  A    between atoms: _71  and  _72
REMARK   22  A    between atoms: _72  and  _73
REMARK   23  A    between atoms: _78  and  _79
REMARK   24  A    between atoms: _79  and  _80
REMARK   25  A    between atoms: _79  and  _82
REMARK   26  A    between atoms: _82  and  _83
REMARK                            x       y       z     vdW  Elec       q    Type
REMARK                         _______ _______ _______ _____ _____    ______ ____
ROOT
ATOM      1  CA  GLN A   3       8.389   0.309  21.244  0.00  0.00    +0.159 C 
ENDROOT
BRANCH   1   2
ATOM      2  C   GLN A   3       8.681   1.121  22.520  0.00  0.00    +0.234 C 
ATOM      3  O   GLN A   3       8.074   0.905  23.570  0.00  0.00    -0.274 OA
ATOM      4  N   ALA A   4       9.622   2.111  22.399  0.00  0.00    -0.303 N 
ATOM      5  H   ALA A   4      10.164   2.229  21.548  0.00  0.00    +0.149 HD
BRANCH   4   6
ATOM      6  CA  ALA A   4      10.033   2.931  23.539  0.00  0.00    +0.156 C 
ATOM      7  CB  ALA A   4      11.321   3.692  23.234  0.00  0.00    +0.038 C 
BRANCH   6   8
ATOM      8  C   ALA A   4       8.894   3.916  23.864  0.00  0.00    +0.233 C 
ATOM      9  N   GLY A   5       8.249   3.683  25.052  0.00  0.00    -0.305 N 
ATOM     10  H   GLY A   5       8.467   2.865  25.615  0.00  0.00    +0.149 HD
ATOM     11  O   ALA A   4       8.601   4.846  23.111  0.00  0.00    -0.274 OA
BRANCH   9  12
ATOM     12  CA  GLY A   5       7.209   4.560  25.558  0.00  0.00    +0.200 C 
BRANCH  12  13
ATOM     13  C   GLY A   5       6.406   3.823  26.629  0.00  0.00    +0.231 C 
ATOM     14  O   GLY A   5       5.554   4.382  27.319  0.00  0.00    -0.274 OA
ATOM     15  N   ASN A   6       6.724   2.496  26.777  0.00  0.00    -0.304 N 
ATOM     16  H   ASN A   6       7.496   2.088  26.252  0.00  0.00    +0.149 HD
BRANCH  15  17
ATOM     17  CA  ASN A   6       6.050   1.629  27.739  0.00  0.00    +0.145 C 
BRANCH  17  18
ATOM     18  C   ASN A   6       7.120   0.782  28.414  0.00  0.00    +0.245 C 
ATOM     19  O   ASN A   6       7.920   0.081  27.797  0.00  0.00    -0.299 OA
ENDBRANCH  17  18
BRANCH  17  20
ATOM     20  CB  ASN A   6       5.037   0.693  27.092  0.00  0.00    +0.125 C 
BRANCH  20  21
ATOM     21  CG  ASN A   6       5.274   0.438  25.624  0.00  0.00    +0.213 C 
ATOM     22  ND2 ASN A   6       6.031  -0.649  25.305  0.00  0.00    -0.329 N 
ATOM     23 HD21 ASN A   6       6.095  -0.825  24.308  0.00  0.00    +0.145 HD
ATOM     24 HD22 ASN A   6       5.970  -1.491  25.863  0.00  0.00    +0.145 HD
ATOM     25  OD1 ASN A   6       4.866   1.193  24.747  0.00  0.00    -0.276 OA
ENDBRANCH  20  21
ENDBRANCH  17  20
ENDBRANCH  15  17
ENDBRANCH  12  13
ENDBRANCH   9  12
ENDBRANCH   6   8
ENDBRANCH   4   6
ENDBRANCH   1   2
BRANCH   1  27
ATOM     26  C   LEU A   2       8.676  -2.026  22.071  0.00  0.00    +0.234 C 
ATOM     27  N   GLN A   3       7.868  -0.979  21.700  0.00  0.00    -0.302 N 
ATOM     28  H   GLN A   3       6.854  -1.084  21.691  0.00  0.00    +0.150 HD
ATOM     29  O   LEU A   2       9.906  -1.957  22.027  0.00  0.00    -0.274 OA
BRANCH  26  30
ATOM     30  CA  LEU A   2       7.924  -3.297  22.528  0.00  0.00    +0.159 C 
BRANCH  30  33
ATOM     31  C   ARG A   1       8.555  -4.284  24.709  0.00  0.00    +0.230 C 
ATOM     32  O   ARG A   1       8.998  -5.314  24.208  0.00  0.00    -0.274 OA
ATOM     33  N   LEU A   2       7.924  -3.300  23.988  0.00  0.00    -0.303 N 
ATOM     34  H   LEU A   2       7.774  -2.398  24.427  0.00  0.00    +0.149 HD
BRANCH  31  35
ATOM     35  CA  ARG A   1       8.683  -3.980  26.215  0.00  0.00    +0.138 C 
BRANCH  35  36
ATOM     36  N   ARG A   1       8.334  -2.570  26.455  0.00  0.00    -0.320 NA
ATOM     37  H1  ARG A   1       8.369  -2.386  27.459  0.00  0.00    +0.119 HD
ATOM     38  H2  ARG A   1       9.085  -1.988  26.068  0.00  0.00    +0.119 HD
ENDBRANCH  35  36
BRANCH  35  39
ATOM     39  CB  ARG A   1       7.731  -4.884  27.010  0.00  0.00    +0.031 C 
BRANCH  39  40
ATOM     40  CG  ARG A   1       6.299  -4.340  27.039  0.00  0.00    +0.039 C 
BRANCH  40  41
ATOM     41  CD  ARG A   1       5.618  -4.614  28.375  0.00  0.00    +0.196 C 
BRANCH  41  42
ATOM     42  NE  ARG A   1       4.397  -5.410  28.180  0.00  0.00    -0.279 N 
ATOM     43  CZ  ARG A   1       4.337  -6.745  28.265  0.00  0.00    +0.341 C 
ATOM     44  NH2 ARG A   1       5.422  -7.485  28.509  0.00  0.00    -0.292 N 
ATOM     45 HH21 ARG A   1       6.328  -7.057  28.648  0.00  0.00    +0.255 HD
ATOM     46 HH22 ARG A   1       5.369  -8.491  28.579  0.00  0.00    +0.255 HD
ATOM     47  NH1 ARG A   1       3.170  -7.364  28.109  0.00  0.00    -0.292 N 
ATOM     48 HH11 ARG A   1       3.074  -8.367  28.133  0.00  0.00    +0.255 HD
ATOM     49 HH12 ARG A   1       2.298  -6.823  28.038  0.00  0.00    +0.255 HD
ATOM     50  HE  ARG A   1       3.523  -4.936  27.967  0.00  0.00    +0.258 HD
ENDBRANCH  41  42
ENDBRANCH  40  41
ENDBRANCH  39  40
ENDBRANCH  35  39
ENDBRANCH  31  35
ENDBRANCH  30  33
BRANCH  30  51
ATOM     51  CB  LEU A   2       6.488  -3.322  21.987  0.00  0.00    +0.034 C 
BRANCH  51  52
ATOM     52  CG  LEU A   2       5.920  -4.743  21.792  0.00  0.00    -0.015 C 
ATOM     53  CD2 LEU A   2       5.189  -5.249  23.038  0.00  0.00    +0.007 C 
ATOM     54  CD1 LEU A   2       7.048  -5.711  21.428  0.00  0.00    +0.007 C 
ENDBRANCH  51  52
ENDBRANCH  30  51
ENDBRANCH  26  30
ENDBRANCH   1  27
BRANCH   1  55
ATOM     55  CB  GLN A   3       7.357   1.020  20.359  0.00  0.00    +0.041 C 
BRANCH  55  56
ATOM     56  CG  GLN A   3       6.242   0.093  19.882  0.00  0.00    +0.098 C 
BRANCH  56  57
ATOM     57  CD  GLN A   3       5.740   0.571  18.537  0.00  0.00    +0.211 C 
ATOM     58  NE2 GLN A   3       5.112   1.777  18.551  0.00  0.00    -0.329 N 
ATOM     59 HE21 GLN A   3       5.076   2.369  19.374  0.00  0.00    +0.145 HD
ATOM     60 HE22 GLN A   3       4.752   2.168  17.689  0.00  0.00    +0.145 HD
ATOM     61  OE1 GLN A   3       5.817  -0.103  17.510  0.00  0.00    -0.276 OA
ENDBRANCH  56  57
ENDBRANCH  55  56
ENDBRANCH   1  55
TORSDOF 23
ENDMDL
