REMARK  Name = RLQSLE-mmff94.pdb
REMARK  32 active torsions:
REMARK  status: ('A' for Active; 'I' for Inactive)
REMARK    1  A    between atoms: _1  and  _2
REMARK    2  A    between atoms: _2  and  _3
REMARK    3  A    between atoms: _2  and  _5
REMARK    4  A    between atoms: _5  and  _6
REMARK    5  A    between atoms: _6  and  _7
REMARK    6  A    between atoms: _7  and  _8
REMARK    7  A    between atoms: _25  and  _26
REMARK    8  A    between atoms: _26  and  _27
REMARK    9  A    between atoms: _26  and  _29
REMARK   10  A    between atoms: _29  and  _30
REMARK   11  A    between atoms: _30  and  _31
REMARK   12  A    between atoms: _30  and  _32
REMARK   13  A    between atoms: _44  and  _45
REMARK   14  A    between atoms: _45  and  _46
REMARK   15  A    between atoms: _45  and  _48
REMARK   16  A    between atoms: _48  and  _49
REMARK   17  A    between atoms: _49  and  _50
REMARK   18  A    between atoms: _61  and  _62
REMARK   19  A    between atoms: _62  and  _63
REMARK   20  A    between atoms: _62  and  _65
REMARK   21  A    between atoms: _65  and  _66
REMARK   22  A    between atoms: _72  and  _73
REMARK   23  A    between atoms: _73  and  _74
REMARK   24  A    between atoms: _73  and  _76
REMARK   25  A    between atoms: _76  and  _77
REMARK   26  A    between atoms: _77  and  _78
REMARK   27  A    between atoms: _77  and  _79
REMARK   28  A    between atoms: _91  and  _92
REMARK   29  A    between atoms: _92  and  _93
REMARK   30  A    between atoms: _92  and  _95
REMARK   31  A    between atoms: _95  and  _96
REMARK   32  A    between atoms: _96  and  _97
REMARK                            x       y       z     vdW  Elec       q    Type
REMARK                         _______ _______ _______ _____ _____    ______ ____
ROOT
ATOM      1  CA  GLN A   3       6.245  -0.708  -1.760  0.00  0.00    +0.159 C 
ENDROOT
BRANCH   1   2
ATOM      2  C   GLN A   3       7.779  -0.709  -1.614  0.00  0.00    +0.234 C 
ATOM      3  O   GLN A   3       8.321  -0.873  -0.521  0.00  0.00    -0.274 OA
ATOM      4  N   SER A   4       8.486  -0.472  -2.759  0.00  0.00    -0.301 N 
ATOM      5  H   SER A   4       8.043  -0.439  -3.675  0.00  0.00    +0.150 HD
BRANCH   4   6
ATOM      6  CA  SER A   4       9.951  -0.352  -2.776  0.00  0.00    +0.184 C 
BRANCH   6   7
ATOM      7  C   SER A   4      10.329   0.322  -4.105  0.00  0.00    +0.236 C 
ATOM      8  N   LEU A   5      11.569   0.906  -4.127  0.00  0.00    -0.302 N 
ATOM      9  H   LEU A   5      12.230   0.731  -3.371  0.00  0.00    +0.150 HD
ATOM     10  O   SER A   4       9.534   0.365  -5.045  0.00  0.00    -0.274 OA
BRANCH   8  11
ATOM     11  CA  LEU A   5      12.171   1.522  -5.312  0.00  0.00    +0.159 C 
BRANCH  11  12
ATOM     12  C   LEU A   5      13.699   1.416  -5.102  0.00  0.00    +0.234 C 
ATOM     13  O   LEU A   5      14.174   1.179  -3.991  0.00  0.00    -0.274 OA
ATOM     14  N   GLU A   6      14.456   1.668  -6.216  0.00  0.00    -0.304 N 
ATOM     15  H   GLU A   6      14.018   1.894  -7.104  0.00  0.00    +0.149 HD
BRANCH  14  16
ATOM     16  CA  GLU A   6      15.918   1.715  -6.196  0.00  0.00    +0.136 C 
BRANCH  16  17
ATOM     17  C   GLU A   6      16.336   2.639  -7.338  0.00  0.00    +0.245 C 
ATOM     18  O   GLU A   6      15.534   3.246  -8.052  0.00  0.00    -0.299 OA
ENDBRANCH  16  17
BRANCH  16  19
ATOM     19  CB  GLU A   6      16.525   0.325  -6.371  0.00  0.00    +0.035 C 
BRANCH  19  20
ATOM     20  CG  GLU A   6      18.021   0.308  -6.061  0.00  0.00    +0.054 C 
BRANCH  20  21
ATOM     21  CD  GLU A   6      18.684  -1.061  -6.219  0.00  0.00    +0.042 C 
ATOM     22  OE2 GLU A   6      19.880  -1.097  -5.811  0.00  0.00    -0.550 OA
ATOM     23  OE1 GLU A   6      17.981  -1.962  -6.746  0.00  0.00    -0.550 OA
ENDBRANCH  20  21
ENDBRANCH  19  20
ENDBRANCH  16  19
ENDBRANCH  14  16
ENDBRANCH  11  12
BRANCH  11  24
ATOM     24  CB  LEU A   5      11.801   3.012  -5.453  0.00  0.00    +0.034 C 
BRANCH  24  25
ATOM     25  CG  LEU A   5      10.344   3.317  -5.846  0.00  0.00    -0.015 C 
ATOM     26  CD2 LEU A   5      10.101   4.829  -5.798  0.00  0.00    +0.007 C 
ATOM     27  CD1 LEU A   5       9.998   2.790  -7.239  0.00  0.00    +0.007 C 
ENDBRANCH  24  25
ENDBRANCH  11  24
ENDBRANCH   8  11
ENDBRANCH   6   7
BRANCH   6  28
ATOM     28  CB  SER A   4      10.667  -1.699  -2.618  0.00  0.00    +0.187 C 
BRANCH  28  29
ATOM     29  OG  SER A   4      10.122  -2.688  -3.493  0.00  0.00    -0.393 OA
ATOM     30  H   SER A   4       9.206  -2.844  -3.207  0.00  0.00    +0.209 HD
ENDBRANCH  28  29
ENDBRANCH   6  28
ENDBRANCH   4   6
ENDBRANCH   1   2
BRANCH   1  32
ATOM     31  C   LEU A   2       4.449  -2.009  -0.624  0.00  0.00    +0.234 C 
ATOM     32  N   GLN A   3       5.738  -1.538  -0.668  0.00  0.00    -0.302 N 
ATOM     33  H   GLN A   3       6.375  -1.697   0.111  0.00  0.00    +0.150 HD
ATOM     34  O   LEU A   2       3.618  -1.749  -1.498  0.00  0.00    -0.274 OA
BRANCH  31  35
ATOM     35  CA  LEU A   2       4.117  -2.873   0.614  0.00  0.00    +0.159 C 
BRANCH  35  38
ATOM     36  C   ARG A   1       1.833  -2.610   1.534  0.00  0.00    +0.230 C 
ATOM     37  O   ARG A   1       2.218  -2.056   2.561  0.00  0.00    -0.274 OA
ATOM     38  N   LEU A   2       2.680  -3.131   0.586  0.00  0.00    -0.303 N 
ATOM     39  H   LEU A   2       2.299  -3.381  -0.320  0.00  0.00    +0.149 HD
BRANCH  36  40
ATOM     40  CA  ARG A   1       0.336  -2.759   1.194  0.00  0.00    +0.138 C 
BRANCH  40  41
ATOM     41  N   ARG A   1      -0.347  -3.428   2.315  0.00  0.00    -0.320 NA
ATOM     42  H1  ARG A   1       0.073  -4.349   2.454  0.00  0.00    +0.119 HD
ATOM     43  H2  ARG A   1      -0.117  -2.918   3.173  0.00  0.00    +0.119 HD
ENDBRANCH  40  41
BRANCH  40  44
ATOM     44  CB  ARG A   1      -0.286  -1.374   0.969  0.00  0.00    +0.031 C 
BRANCH  44  45
ATOM     45  CG  ARG A   1       0.365  -0.632  -0.203  0.00  0.00    +0.039 C 
BRANCH  45  46
ATOM     46  CD  ARG A   1      -0.242   0.752  -0.406  0.00  0.00    +0.196 C 
BRANCH  46  47
ATOM     47  NE  ARG A   1       0.547   1.523  -1.377  0.00  0.00    -0.279 N 
ATOM     48  CZ  ARG A   1       0.216   2.734  -1.841  0.00  0.00    +0.341 C 
ATOM     49  NH2 ARG A   1      -0.920   3.340  -1.478  0.00  0.00    -0.292 N 
ATOM     50 HH21 ARG A   1      -1.561   2.903  -0.830  0.00  0.00    +0.255 HD
ATOM     51 HH22 ARG A   1      -1.159   4.258  -1.823  0.00  0.00    +0.255 HD
ATOM     52  NH1 ARG A   1       1.031   3.365  -2.683  0.00  0.00    -0.292 N 
ATOM     53 HH11 ARG A   1       0.813   4.262  -3.087  0.00  0.00    +0.255 HD
ATOM     54 HH12 ARG A   1       1.968   2.993  -2.886  0.00  0.00    +0.255 HD
ATOM     55  HE  ARG A   1       1.415   1.130  -1.734  0.00  0.00    +0.258 HD
ENDBRANCH  46  47
ENDBRANCH  45  46
ENDBRANCH  44  45
ENDBRANCH  40  44
ENDBRANCH  36  40
ENDBRANCH  35  38
BRANCH  35  56
ATOM     56  CB  LEU A   2       4.905  -4.189   0.597  0.00  0.00    +0.034 C 
BRANCH  56  57
ATOM     57  CG  LEU A   2       4.679  -5.066   1.846  0.00  0.00    -0.015 C 
ATOM     58  CD2 LEU A   2       5.199  -4.400   3.121  0.00  0.00    +0.007 C 
ATOM     59  CD1 LEU A   2       5.361  -6.423   1.657  0.00  0.00    +0.007 C 
ENDBRANCH  56  57
ENDBRANCH  35  56
ENDBRANCH  31  35
ENDBRANCH   1  32
BRANCH   1  60
ATOM     60  CB  GLN A   3       5.687   0.718  -1.653  0.00  0.00    +0.041 C 
BRANCH  60  61
ATOM     61  CG  GLN A   3       5.632   1.444  -2.994  0.00  0.00    +0.098 C 
BRANCH  61  62
ATOM     62  CD  GLN A   3       4.780   2.687  -2.851  0.00  0.00    +0.211 C 
ATOM     63  NE2 GLN A   3       5.470   3.831  -2.586  0.00  0.00    -0.329 N 
ATOM     64 HE21 GLN A   3       6.483   3.876  -2.605  0.00  0.00    +0.145 HD
ATOM     65 HE22 GLN A   3       4.974   4.706  -2.487  0.00  0.00    +0.145 HD
ATOM     66  OE1 GLN A   3       3.549   2.671  -2.889  0.00  0.00    -0.276 OA
ENDBRANCH  61  62
ENDBRANCH  60  61
ENDBRANCH   1  60
TORSDOF 28
