REMARK  Name = TFQSAV-mmff94.pdb
REMARK  26 active torsions:
REMARK  status: ('A' for Active; 'I' for Inactive)
REMARK    1  A    between atoms: _1  and  _2
REMARK    2  A    between atoms: _2  and  _3
REMARK    3  A    between atoms: _2  and  _5
REMARK    4  A    between atoms: _5  and  _6
REMARK    5  A    between atoms: _5  and  _7
REMARK    6  A    between atoms: _15  and  _16
REMARK    7  A    between atoms: _16  and  _17
REMARK    8  A    between atoms: _16  and  _19
REMARK    9  A    between atoms: _19  and  _20
REMARK   10  A    between atoms: _35  and  _36
REMARK   11  A    between atoms: _36  and  _37
REMARK   12  A    between atoms: _36  and  _39
REMARK   13  A    between atoms: _39  and  _40
REMARK   14  A    between atoms: _40  and  _41
REMARK   15  A    between atoms: _52  and  _53
REMARK   16  A    between atoms: _53  and  _54
REMARK   17  A    between atoms: _53  and  _56
REMARK   18  A    between atoms: _56  and  _57
REMARK   19  A    between atoms: _63  and  _64
REMARK   20  A    between atoms: _64  and  _65
REMARK   21  A    between atoms: _64  and  _67
REMARK   22  A    between atoms: _73  and  _74
REMARK   23  A    between atoms: _74  and  _75
REMARK   24  A    between atoms: _74  and  _77
REMARK   25  A    between atoms: _77  and  _78
REMARK   26  A    between atoms: _77  and  _79
REMARK                            x       y       z     vdW  Elec       q    Type
REMARK                         _______ _______ _______ _____ _____    ______ ____
ROOT
ATOM      1  CA  GLN A   3       6.194   2.972  -0.657  0.00  0.00    +0.159 C 
ENDROOT
BRANCH   1   2
ATOM      2  C   GLN A   3       7.710   2.711  -0.568  0.00  0.00    +0.234 C 
ATOM      3  O   GLN A   3       8.167   1.666  -0.103  0.00  0.00    -0.274 OA
ATOM      4  N   SER A   4       8.514   3.733  -1.003  0.00  0.00    -0.301 N 
ATOM      5  H   SER A   4       8.124   4.613  -1.337  0.00  0.00    +0.150 HD
BRANCH   4   6
ATOM      6  CA  SER A   4       9.970   3.703  -0.837  0.00  0.00    +0.184 C 
BRANCH   6   7
ATOM      7  C   SER A   4      10.480   5.150  -0.917  0.00  0.00    +0.236 C 
ATOM      8  N   ALA A   5      11.778   5.338  -0.517  0.00  0.00    -0.303 N 
ATOM      9  H   ALA A   5      12.352   4.558  -0.206  0.00  0.00    +0.149 HD
ATOM     10  O   SER A   4       9.755   6.073  -1.294  0.00  0.00    -0.274 OA
BRANCH   8  11
ATOM     11  CA  ALA A   5      12.457   6.624  -0.621  0.00  0.00    +0.156 C 
ATOM     12  CB  ALA A   5      12.046   7.577   0.494  0.00  0.00    +0.038 C 
BRANCH  11  13
ATOM     13  C   ALA A   5      13.967   6.343  -0.544  0.00  0.00    +0.234 C 
ATOM     14  N   VAL A   6      14.771   7.348  -1.021  0.00  0.00    -0.304 N 
ATOM     15  H   VAL A   6      14.362   8.228  -1.327  0.00  0.00    +0.149 HD
ATOM     16  O   ALA A   5      14.412   5.295  -0.071  0.00  0.00    -0.274 OA
BRANCH  14  17
ATOM     17  CA  VAL A   6      16.231   7.295  -0.964  0.00  0.00    +0.138 C 
BRANCH  17  18
ATOM     18  CB  VAL A   6      16.860   6.781  -2.277  0.00  0.00    +0.010 C 
ATOM     19  CG2 VAL A   6      16.387   5.366  -2.629  0.00  0.00    +0.009 C 
ATOM     20  CG1 VAL A   6      18.393   6.779  -2.206  0.00  0.00    +0.009 C 
ENDBRANCH  17  18
BRANCH  17  21
ATOM     21  C   VAL A   6      16.674   8.726  -0.666  0.00  0.00    +0.245 C 
ATOM     22  O   VAL A   6      15.979   9.716  -0.895  0.00  0.00    -0.299 OA
ENDBRANCH  17  21
ENDBRANCH  14  17
ENDBRANCH  11  13
ENDBRANCH   8  11
ENDBRANCH   6   7
BRANCH   6  23
ATOM     23  CB  SER A   4      10.651   2.814  -1.885  0.00  0.00    +0.187 C 
BRANCH  23  24
ATOM     24  OG  SER A   4      10.278   3.183  -3.213  0.00  0.00    -0.393 OA
ATOM     25  H   SER A   4       9.305   3.160  -3.247  0.00  0.00    +0.209 HD
ENDBRANCH  23  24
ENDBRANCH   6  23
ENDBRANCH   4   6
ENDBRANCH   1   2
BRANCH   1  28
ATOM     26  C   PHE A   2       4.288   1.483  -1.255  0.00  0.00    +0.234 C 
ATOM     27  O   PHE A   2       3.621   2.418  -1.697  0.00  0.00    -0.274 OA
ATOM     28  N   GLN A   3       5.563   1.657  -0.768  0.00  0.00    -0.302 N 
ATOM     29  H   GLN A   3       6.060   0.878  -0.343  0.00  0.00    +0.150 HD
BRANCH  26  30
ATOM     30  CA  PHE A   2       3.799   0.022  -1.272  0.00  0.00    +0.163 C 
BRANCH  30  32
ATOM     31  C   THR A   1       1.580  -0.138  -0.176  0.00  0.00    +0.233 C 
ATOM     32  N   PHE A   2       2.341   0.025  -1.310  0.00  0.00    -0.302 N 
ATOM     33  H   PHE A   2       1.890   0.402  -2.134  0.00  0.00    +0.150 HD
ATOM     34  O   THR A   1       2.066  -0.373   0.929  0.00  0.00    -0.274 OA
BRANCH  31  35
ATOM     35  CA  THR A   1       0.064  -0.061  -0.430  0.00  0.00    +0.166 C 
BRANCH  35  36
ATOM     36  N   THR A   1      -0.405  -1.383  -0.923  0.00  0.00    -0.318 NA
ATOM     37  H1  THR A   1      -1.428  -1.361  -0.842  0.00  0.00    +0.119 HD
ATOM     38  H2  THR A   1      -0.113  -2.092  -0.247  0.00  0.00    +0.119 HD
ENDBRANCH  35  36
BRANCH  35  39
ATOM     39  CB  THR A   1      -0.689   0.355   0.852  0.00  0.00    +0.137 C 
ATOM     40  CG2 THR A   1      -0.410   1.811   1.211  0.00  0.00    +0.040 C 
BRANCH  39  41
ATOM     41  OG1 THR A   1      -2.101   0.201   0.632  0.00  0.00    -0.390 OA
ATOM     42  HG1 THR A   1      -2.550   0.480   1.450  0.00  0.00    +0.210 HD
ENDBRANCH  39  41
ENDBRANCH  35  39
ENDBRANCH  31  35
ENDBRANCH  30  32
BRANCH  30  43
ATOM     43  CB  PHE A   2       4.397  -0.696  -2.491  0.00  0.00    +0.067 C 
BRANCH  43  44
ATOM     44  CG  PHE A   2       3.963  -2.141  -2.580  0.00  0.00    -0.045 A 
ATOM     45  CD2 PHE A   2       4.624  -3.133  -1.844  0.00  0.00    +0.004 A 
ATOM     46  CE2 PHE A   2       4.179  -4.455  -1.884  0.00  0.00    +0.000 A 
ATOM     47  CZ  PHE A   2       3.069  -4.798  -2.654  0.00  0.00    +0.000 A 
ATOM     48  CE1 PHE A   2       2.404  -3.819  -3.389  0.00  0.00    +0.000 A 
ATOM     49  CD1 PHE A   2       2.849  -2.498  -3.354  0.00  0.00    +0.004 A 
ENDBRANCH  43  44
ENDBRANCH  30  43
ENDBRANCH  26  30
ENDBRANCH   1  28
BRANCH   1  50
ATOM     50  CB  GLN A   3       5.681   3.711   0.588  0.00  0.00    +0.041 C 
BRANCH  50  51
ATOM     51  CG  GLN A   3       6.232   5.129   0.733  0.00  0.00    +0.098 C 
BRANCH  51  52
ATOM     52  CD  GLN A   3       5.443   5.973   1.710  0.00  0.00    +0.211 C 
ATOM     53  NE2 GLN A   3       5.257   5.447   2.951  0.00  0.00    -0.329 N 
ATOM     54 HE21 GLN A   3       4.722   5.998   3.611  0.00  0.00    +0.145 HD
ATOM     55 HE22 GLN A   3       5.521   4.509   3.213  0.00  0.00    +0.145 HD
ATOM     56  OE1 GLN A   3       5.038   7.098   1.440  0.00  0.00    -0.276 OA
ENDBRANCH  51  52
ENDBRANCH  50  51
ENDBRANCH   1  50
TORSDOF 22
