MODEL 1
REMARK VINA RESULT:      -6.9      0.000      0.000
REMARK  Name = TFQSAV-mmff94.pdb
REMARK  26 active torsions:
REMARK  status: ('A' for Active; 'I' for Inactive)
REMARK    1  A    between atoms: _1  and  _2
REMARK    2  A    between atoms: _2  and  _3
REMARK    3  A    between atoms: _2  and  _5
REMARK    4  A    between atoms: _5  and  _6
REMARK    5  A    between atoms: _5  and  _7
REMARK    6  A    between atoms: _15  and  _16
REMARK    7  A    between atoms: _16  and  _17
REMARK    8  A    between atoms: _16  and  _19
REMARK    9  A    between atoms: _19  and  _20
REMARK   10  A    between atoms: _35  and  _36
REMARK   11  A    between atoms: _36  and  _37
REMARK   12  A    between atoms: _36  and  _39
REMARK   13  A    between atoms: _39  and  _40
REMARK   14  A    between atoms: _40  and  _41
REMARK   15  A    between atoms: _52  and  _53
REMARK   16  A    between atoms: _53  and  _54
REMARK   17  A    between atoms: _53  and  _56
REMARK   18  A    between atoms: _56  and  _57
REMARK   19  A    between atoms: _63  and  _64
REMARK   20  A    between atoms: _64  and  _65
REMARK   21  A    between atoms: _64  and  _67
REMARK   22  A    between atoms: _73  and  _74
REMARK   23  A    between atoms: _74  and  _75
REMARK   24  A    between atoms: _74  and  _77
REMARK   25  A    between atoms: _77  and  _78
REMARK   26  A    between atoms: _77  and  _79
REMARK                            x       y       z     vdW  Elec       q    Type
REMARK                         _______ _______ _______ _____ _____    ______ ____
ROOT
ATOM      1  CA  GLN A   3       9.932   0.036  22.544  0.00  0.00    +0.159 C 
ENDROOT
BRANCH   1   2
ATOM      2  C   GLN A   3      10.426   1.125  23.516  0.00  0.00    +0.234 C 
ATOM      3  O   GLN A   3      10.619   0.895  24.710  0.00  0.00    -0.274 OA
ATOM      4  N   SER A   4      10.597   2.372  22.972  0.00  0.00    -0.301 N 
ATOM      5  H   SER A   4      10.383   2.560  21.993  0.00  0.00    +0.150 HD
BRANCH   4   6
ATOM      6  CA  SER A   4      10.908   3.544  23.794  0.00  0.00    +0.184 C 
BRANCH   6   7
ATOM      7  C   SER A   4       9.603   4.327  24.005  0.00  0.00    +0.236 C 
ATOM      8  N   ALA A   5       8.669   4.190  23.010  0.00  0.00    -0.303 N 
ATOM      9  H   ALA A   5       8.841   3.595  22.204  0.00  0.00    +0.149 HD
ATOM     10  O   SER A   4       9.429   5.044  24.993  0.00  0.00    -0.274 OA
BRANCH   8  11
ATOM     11  CA  ALA A   5       7.338   4.779  23.092  0.00  0.00    +0.156 C 
ATOM     12  CB  ALA A   5       7.070   5.744  21.944  0.00  0.00    +0.038 C 
BRANCH  11  13
ATOM     13  C   ALA A   5       6.329   3.619  23.052  0.00  0.00    +0.234 C 
ATOM     14  N   VAL A   6       6.104   3.001  24.257  0.00  0.00    -0.304 N 
ATOM     15  H   VAL A   6       6.536   3.362  25.104  0.00  0.00    +0.149 HD
ATOM     16  O   ALA A   5       5.758   3.287  22.011  0.00  0.00    -0.274 OA
BRANCH  14  17
ATOM     17  CA  VAL A   6       5.126   1.928  24.431  0.00  0.00    +0.138 C 
BRANCH  17  18
ATOM     18  CB  VAL A   6       5.693   0.730  25.222  0.00  0.00    +0.010 C 
ATOM     19  CG2 VAL A   6       4.840   0.393  26.451  0.00  0.00    +0.009 C 
ATOM     20  CG1 VAL A   6       7.133   0.988  25.684  0.00  0.00    +0.009 C 
ENDBRANCH  17  18
BRANCH  17  21
ATOM     21  C   VAL A   6       3.953   2.569  25.171  0.00  0.00    +0.245 C 
ATOM     22  O   VAL A   6       2.821   2.668  24.697  0.00  0.00    -0.299 OA
ENDBRANCH  17  21
ENDBRANCH  14  17
ENDBRANCH  11  13
ENDBRANCH   8  11
ENDBRANCH   6   7
BRANCH   6  23
ATOM     23  CB  SER A   4      11.989   4.425  23.156  0.00  0.00    +0.187 C 
BRANCH  23  24
ATOM     24  OG  SER A   4      11.471   5.699  22.769  0.00  0.00    -0.393 OA
ATOM     25  H   SER A   4      10.582   5.770  23.160  0.00  0.00    +0.209 HD
ENDBRANCH  23  24
ENDBRANCH   6  23
ENDBRANCH   4   6
ENDBRANCH   1   2
BRANCH   1  28
ATOM     26  C   PHE A   2       9.181  -2.061  23.661  0.00  0.00    +0.234 C 
ATOM     27  O   PHE A   2      10.256  -2.624  23.454  0.00  0.00    -0.274 OA
ATOM     28  N   GLN A   3       8.953  -0.756  23.287  0.00  0.00    -0.302 N 
ATOM     29  H   GLN A   3       8.031  -0.344  23.406  0.00  0.00    +0.150 HD
BRANCH  26  30
ATOM     30  CA  PHE A   2       8.017  -2.727  24.420  0.00  0.00    +0.163 C 
BRANCH  30  32
ATOM     31  C   THR A   1       6.228  -3.753  23.043  0.00  0.00    +0.233 C 
ATOM     32  N   PHE A   2       7.487  -3.806  23.594  0.00  0.00    -0.302 N 
ATOM     33  H   PHE A   2       8.142  -4.479  23.217  0.00  0.00    +0.150 HD
ATOM     34  O   THR A   1       5.436  -2.839  23.267  0.00  0.00    -0.274 OA
BRANCH  31  35
ATOM     35  CA  THR A   1       5.880  -4.974  22.173  0.00  0.00    +0.166 C 
BRANCH  35  36
ATOM     36  N   THR A   1       7.100  -5.810  22.014  0.00  0.00    -0.318 NA
ATOM     37  H1  THR A   1       7.668  -5.338  21.302  0.00  0.00    +0.119 HD
ATOM     38  H2  THR A   1       6.822  -6.690  21.574  0.00  0.00    +0.119 HD
ENDBRANCH  35  36
BRANCH  35  39
ATOM     39  CB  THR A   1       4.725  -5.786  22.798  0.00  0.00    +0.137 C 
ATOM     40  CG2 THR A   1       5.055  -6.209  24.226  0.00  0.00    +0.040 C 
BRANCH  39  41
ATOM     41  OG1 THR A   1       3.544  -4.968  22.825  0.00  0.00    -0.390 OA
ATOM     42  HG1 THR A   1       3.535  -4.451  21.999  0.00  0.00    +0.210 HD
ENDBRANCH  39  41
ENDBRANCH  35  39
ENDBRANCH  31  35
ENDBRANCH  30  32
BRANCH  30  43
ATOM     43  CB  PHE A   2       8.528  -3.246  25.772  0.00  0.00    +0.067 C 
BRANCH  43  44
ATOM     44  CG  PHE A   2       7.420  -3.813  26.629  0.00  0.00    -0.045 A 
ATOM     45  CD2 PHE A   2       6.270  -3.061  26.901  0.00  0.00    +0.004 A 
ATOM     46  CE2 PHE A   2       5.225  -3.614  27.641  0.00  0.00    +0.000 A 
ATOM     47  CZ  PHE A   2       5.315  -4.922  28.113  0.00  0.00    +0.000 A 
ATOM     48  CE1 PHE A   2       6.454  -5.679  27.847  0.00  0.00    +0.000 A 
ATOM     49  CD1 PHE A   2       7.502  -5.128  27.111  0.00  0.00    +0.004 A 
ENDBRANCH  43  44
ENDBRANCH  30  43
ENDBRANCH  26  30
ENDBRANCH   1  28
BRANCH   1  50
ATOM     50  CB  GLN A   3       9.285   0.654  21.295  0.00  0.00    +0.041 C 
BRANCH  50  51
ATOM     51  CG  GLN A   3       8.464  -0.337  20.472  0.00  0.00    +0.098 C 
BRANCH  51  52
ATOM     52  CD  GLN A   3       7.367   0.327  19.668  0.00  0.00    +0.211 C 
ATOM     53  NE2 GLN A   3       6.324   0.840  20.377  0.00  0.00    -0.329 N 
ATOM     54 HE21 GLN A   3       5.579   1.278  19.850  0.00  0.00    +0.145 HD
ATOM     55 HE22 GLN A   3       6.199   0.713  21.370  0.00  0.00    +0.145 HD
ATOM     56  OE1 GLN A   3       7.424   0.463  18.452  0.00  0.00    -0.276 OA
ENDBRANCH  51  52
ENDBRANCH  50  51
ENDBRANCH   1  50
TORSDOF 22
ENDMDL
MODEL 2
REMARK VINA RESULT:      -6.8      1.521      2.839
REMARK  Name = TFQSAV-mmff94.pdb
REMARK  26 active torsions:
REMARK  status: ('A' for Active; 'I' for Inactive)
REMARK    1  A    between atoms: _1  and  _2
REMARK    2  A    between atoms: _2  and  _3
REMARK    3  A    between atoms: _2  and  _5
REMARK    4  A    between atoms: _5  and  _6
REMARK    5  A    between atoms: _5  and  _7
REMARK    6  A    between atoms: _15  and  _16
REMARK    7  A    between atoms: _16  and  _17
REMARK    8  A    between atoms: _16  and  _19
REMARK    9  A    between atoms: _19  and  _20
REMARK   10  A    between atoms: _35  and  _36
REMARK   11  A    between atoms: _36  and  _37
REMARK   12  A    between atoms: _36  and  _39
REMARK   13  A    between atoms: _39  and  _40
REMARK   14  A    between atoms: _40  and  _41
REMARK   15  A    between atoms: _52  and  _53
REMARK   16  A    between atoms: _53  and  _54
REMARK   17  A    between atoms: _53  and  _56
REMARK   18  A    between atoms: _56  and  _57
REMARK   19  A    between atoms: _63  and  _64
REMARK   20  A    between atoms: _64  and  _65
REMARK   21  A    between atoms: _64  and  _67
REMARK   22  A    between atoms: _73  and  _74
REMARK   23  A    between atoms: _74  and  _75
REMARK   24  A    between atoms: _74  and  _77
REMARK   25  A    between atoms: _77  and  _78
REMARK   26  A    between atoms: _77  and  _79
REMARK                            x       y       z     vdW  Elec       q    Type
REMARK                         _______ _______ _______ _____ _____    ______ ____
ROOT
ATOM      1  CA  GLN A   3       8.859   0.392  21.406  0.00  0.00    +0.159 C 
ENDROOT
BRANCH   1   2
ATOM      2  C   GLN A   3       9.207   1.221  22.657  0.00  0.00    +0.234 C 
ATOM      3  O   GLN A   3       8.608   1.078  23.724  0.00  0.00    -0.274 OA
ATOM      4  N   SER A   4      10.199   2.154  22.493  0.00  0.00    -0.301 N 
ATOM      5  H   SER A   4      10.651   2.298  21.591  0.00  0.00    +0.150 HD
BRANCH   4   6
ATOM      6  CA  SER A   4      10.536   3.125  23.537  0.00  0.00    +0.184 C 
BRANCH   6   7
ATOM      7  C   SER A   4       9.255   3.897  23.888  0.00  0.00    +0.236 C 
ATOM      8  N   ALA A   5       8.447   4.210  22.825  0.00  0.00    -0.303 N 
ATOM      9  H   ALA A   5       8.690   3.928  21.878  0.00  0.00    +0.149 HD
ATOM     10  O   SER A   4       8.994   4.228  25.047  0.00  0.00    -0.274 OA
BRANCH   8  11
ATOM     11  CA  ALA A   5       7.147   4.850  22.983  0.00  0.00    +0.156 C 
ATOM     12  CB  ALA A   5       6.837   5.801  21.835  0.00  0.00    +0.038 C 
BRANCH  11  13
ATOM     13  C   ALA A   5       6.097   3.728  23.036  0.00  0.00    +0.234 C 
ATOM     14  N   VAL A   6       6.037   3.042  24.223  0.00  0.00    -0.304 N 
ATOM     15  H   VAL A   6       6.611   3.333  25.011  0.00  0.00    +0.149 HD
ATOM     16  O   ALA A   5       5.357   3.482  22.081  0.00  0.00    -0.274 OA
BRANCH  14  17
ATOM     17  CA  VAL A   6       5.054   1.992  24.488  0.00  0.00    +0.138 C 
BRANCH  17  18
ATOM     18  CB  VAL A   6       5.553   0.955  25.517  0.00  0.00    +0.010 C 
ATOM     19  CG2 VAL A   6       5.764  -0.427  24.889  0.00  0.00    +0.009 C 
ATOM     20  CG1 VAL A   6       4.578   0.813  26.694  0.00  0.00    +0.009 C 
ENDBRANCH  17  18
BRANCH  17  21
ATOM     21  C   VAL A   6       3.814   2.722  25.000  0.00  0.00    +0.245 C 
ATOM     22  O   VAL A   6       2.740   2.744  24.399  0.00  0.00    -0.299 OA
ENDBRANCH  17  21
ENDBRANCH  14  17
ENDBRANCH  11  13
ENDBRANCH   8  11
ENDBRANCH   6   7
BRANCH   6  23
ATOM     23  CB  SER A   4      11.657   4.076  23.100  0.00  0.00    +0.187 C 
BRANCH  23  24
ATOM     24  OG  SER A   4      11.218   5.435  23.079  0.00  0.00    -0.393 OA
ATOM     25  H   SER A   4      11.119   5.682  22.142  0.00  0.00    +0.209 HD
ENDBRANCH  23  24
ENDBRANCH   6  23
ENDBRANCH   4   6
ENDBRANCH   1   2
BRANCH   1  28
ATOM     26  C   PHE A   2       9.031  -1.961  22.208  0.00  0.00    +0.234 C 
ATOM     27  O   PHE A   2      10.261  -1.948  22.160  0.00  0.00    -0.274 OA
ATOM     28  N   GLN A   3       8.273  -0.855  21.898  0.00  0.00    -0.302 N 
ATOM     29  H   GLN A   3       7.258  -0.919  21.877  0.00  0.00    +0.150 HD
BRANCH  26  30
ATOM     30  CA  PHE A   2       8.223  -3.181  22.690  0.00  0.00    +0.163 C 
BRANCH  30  32
ATOM     31  C   THR A   1       8.840  -4.017  24.942  0.00  0.00    +0.233 C 
ATOM     32  N   PHE A   2       8.147  -3.136  24.146  0.00  0.00    -0.302 N 
ATOM     33  H   PHE A   2       7.783  -2.294  24.575  0.00  0.00    +0.150 HD
ATOM     34  O   THR A   1       9.507  -4.946  24.490  0.00  0.00    -0.274 OA
BRANCH  31  35
ATOM     35  CA  THR A   1       8.653  -3.770  26.450  0.00  0.00    +0.166 C 
BRANCH  35  36
ATOM     36  N   THR A   1       8.441  -2.315  26.672  0.00  0.00    -0.318 NA
ATOM     37  H1  THR A   1       7.438  -2.156  26.519  0.00  0.00    +0.119 HD
ATOM     38  H2  THR A   1       8.896  -1.811  25.909  0.00  0.00    +0.119 HD
ENDBRANCH  35  36
BRANCH  35  39
ATOM     39  CB  THR A   1       7.472  -4.597  27.001  0.00  0.00    +0.137 C 
ATOM     40  CG2 THR A   1       6.194  -3.766  27.061  0.00  0.00    +0.040 C 
BRANCH  39  41
ATOM     41  OG1 THR A   1       7.246  -5.720  26.134  0.00  0.00    -0.390 OA
ATOM     42  HG1 THR A   1       6.919  -5.367  25.287  0.00  0.00    +0.210 HD
ENDBRANCH  39  41
ENDBRANCH  35  39
ENDBRANCH  31  35
ENDBRANCH  30  32
BRANCH  30  43
ATOM     43  CB  PHE A   2       6.829  -3.149  22.047  0.00  0.00    +0.067 C 
BRANCH  43  44
ATOM     44  CG  PHE A   2       5.868  -4.113  22.704  0.00  0.00    -0.045 A 
ATOM     45  CD2 PHE A   2       6.097  -5.494  22.658  0.00  0.00    +0.004 A 
ATOM     46  CE2 PHE A   2       5.239  -6.374  23.319  0.00  0.00    +0.000 A 
ATOM     47  CZ  PHE A   2       4.148  -5.884  24.035  0.00  0.00    +0.000 A 
ATOM     48  CE1 PHE A   2       3.912  -4.512  24.088  0.00  0.00    +0.000 A 
ATOM     49  CD1 PHE A   2       4.766  -3.631  23.425  0.00  0.00    +0.004 A 
ENDBRANCH  43  44
ENDBRANCH  30  43
ENDBRANCH  26  30
ENDBRANCH   1  28
BRANCH   1  50
ATOM     50  CB  GLN A   3       7.861   1.135  20.504  0.00  0.00    +0.041 C 
BRANCH  50  51
ATOM     51  CG  GLN A   3       7.459   0.351  19.256  0.00  0.00    +0.098 C 
BRANCH  51  52
ATOM     52  CD  GLN A   3       6.002   0.532  18.888  0.00  0.00    +0.211 C 
ATOM     53  NE2 GLN A   3       5.273   1.351  19.693  0.00  0.00    -0.329 N 
ATOM     54 HE21 GLN A   3       4.294   1.473  19.463  0.00  0.00    +0.145 HD
ATOM     55 HE22 GLN A   3       5.616   1.751  20.554  0.00  0.00    +0.145 HD
ATOM     56  OE1 GLN A   3       5.501   0.027  17.890  0.00  0.00    -0.276 OA
ENDBRANCH  51  52
ENDBRANCH  50  51
ENDBRANCH   1  50
TORSDOF 22
ENDMDL
MODEL 3
REMARK VINA RESULT:      -6.7      2.257      3.944
REMARK  Name = TFQSAV-mmff94.pdb
REMARK  26 active torsions:
REMARK  status: ('A' for Active; 'I' for Inactive)
REMARK    1  A    between atoms: _1  and  _2
REMARK    2  A    between atoms: _2  and  _3
REMARK    3  A    between atoms: _2  and  _5
REMARK    4  A    between atoms: _5  and  _6
REMARK    5  A    between atoms: _5  and  _7
REMARK    6  A    between atoms: _15  and  _16
REMARK    7  A    between atoms: _16  and  _17
REMARK    8  A    between atoms: _16  and  _19
REMARK    9  A    between atoms: _19  and  _20
REMARK   10  A    between atoms: _35  and  _36
REMARK   11  A    between atoms: _36  and  _37
REMARK   12  A    between atoms: _36  and  _39
REMARK   13  A    between atoms: _39  and  _40
REMARK   14  A    between atoms: _40  and  _41
REMARK   15  A    between atoms: _52  and  _53
REMARK   16  A    between atoms: _53  and  _54
REMARK   17  A    between atoms: _53  and  _56
REMARK   18  A    between atoms: _56  and  _57
REMARK   19  A    between atoms: _63  and  _64
REMARK   20  A    between atoms: _64  and  _65
REMARK   21  A    between atoms: _64  and  _67
REMARK   22  A    between atoms: _73  and  _74
REMARK   23  A    between atoms: _74  and  _75
REMARK   24  A    between atoms: _74  and  _77
REMARK   25  A    between atoms: _77  and  _78
REMARK   26  A    between atoms: _77  and  _79
REMARK                            x       y       z     vdW  Elec       q    Type
REMARK                         _______ _______ _______ _____ _____    ______ ____
ROOT
ATOM      1  CA  GLN A   3       8.039  -0.006  21.230  0.00  0.00    +0.159 C 
ENDROOT
BRANCH   1   2
ATOM      2  C   GLN A   3       7.527   1.149  22.112  0.00  0.00    +0.234 C 
ATOM      3  O   GLN A   3       7.115   0.964  23.257  0.00  0.00    -0.274 OA
ATOM      4  N   SER A   4       7.524   2.388  21.523  0.00  0.00    -0.301 N 
ATOM      5  H   SER A   4       7.819   2.520  20.557  0.00  0.00    +0.150 HD
BRANCH   4   6
ATOM      6  CA  SER A   4       6.922   3.557  22.172  0.00  0.00    +0.184 C 
BRANCH   6   7
ATOM      7  C   SER A   4       7.725   3.849  23.449  0.00  0.00    +0.236 C 
ATOM      8  N   ALA A   5       7.050   3.649  24.625  0.00  0.00    -0.303 N 
ATOM      9  H   ALA A   5       6.089   3.316  24.632  0.00  0.00    +0.149 HD
ATOM     10  O   SER A   4       8.888   4.256  23.404  0.00  0.00    -0.274 OA
BRANCH   8  11
ATOM     11  CA  ALA A   5       7.685   3.780  25.931  0.00  0.00    +0.156 C 
ATOM     12  CB  ALA A   5       7.186   5.004  26.688  0.00  0.00    +0.038 C 
BRANCH  11  13
ATOM     13  C   ALA A   5       7.357   2.502  26.721  0.00  0.00    +0.234 C 
ATOM     14  N   VAL A   6       7.679   1.328  26.087  0.00  0.00    -0.304 N 
ATOM     15  H   VAL A   6       8.164   1.345  25.193  0.00  0.00    +0.149 HD
ATOM     16  O   ALA A   5       6.857   2.542  27.847  0.00  0.00    -0.274 OA
BRANCH  14  17
ATOM     17  CA  VAL A   6       7.509   0.015  26.709  0.00  0.00    +0.138 C 
BRANCH  17  18
ATOM     18  CB  VAL A   6       6.360  -0.799  26.077  0.00  0.00    +0.010 C 
ATOM     19  CG2 VAL A   6       5.045  -0.012  26.042  0.00  0.00    +0.009 C 
ATOM     20  CG1 VAL A   6       6.120  -2.115  26.829  0.00  0.00    +0.009 C 
ENDBRANCH  17  18
BRANCH  17  21
ATOM     21  C   VAL A   6       8.850  -0.693  26.525  0.00  0.00    +0.245 C 
ATOM     22  O   VAL A   6       9.557  -0.564  25.525  0.00  0.00    -0.299 OA
ENDBRANCH  17  21
ENDBRANCH  14  17
ENDBRANCH  11  13
ENDBRANCH   8  11
ENDBRANCH   6   7
BRANCH   6  23
ATOM     23  CB  SER A   4       5.437   3.339  22.486  0.00  0.00    +0.187 C 
BRANCH  23  24
ATOM     24  OG  SER A   4       4.721   2.861  21.347  0.00  0.00    -0.393 OA
ATOM     25  H   SER A   4       5.113   3.294  20.568  0.00  0.00    +0.209 HD
ENDBRANCH  23  24
ENDBRANCH   6  23
ENDBRANCH   4   6
ENDBRANCH   1   2
BRANCH   1  28
ATOM     26  C   PHE A   2       7.940  -2.256  22.295  0.00  0.00    +0.234 C 
ATOM     27  O   PHE A   2       9.134  -2.232  22.591  0.00  0.00    -0.274 OA
ATOM     28  N   GLN A   3       7.318  -1.200  21.669  0.00  0.00    -0.302 N 
ATOM     29  H   GLN A   3       6.348  -1.279  21.372  0.00  0.00    +0.150 HD
BRANCH  26  30
ATOM     30  CA  PHE A   2       7.008  -3.427  22.660  0.00  0.00    +0.163 C 
BRANCH  30  32
ATOM     31  C   THR A   1       8.095  -5.323  23.833  0.00  0.00    +0.233 C 
ATOM     32  N   PHE A   2       7.526  -4.071  23.862  0.00  0.00    -0.302 N 
ATOM     33  H   PHE A   2       7.698  -3.490  24.672  0.00  0.00    +0.150 HD
ATOM     34  O   THR A   1       8.137  -6.016  22.818  0.00  0.00    -0.274 OA
BRANCH  31  35
ATOM     35  CA  THR A   1       8.615  -5.799  25.201  0.00  0.00    +0.166 C 
BRANCH  35  36
ATOM     36  N   THR A   1      10.001  -5.294  25.386  0.00  0.00    -0.318 NA
ATOM     37  H1  THR A   1       9.925  -4.271  25.387  0.00  0.00    +0.119 HD
ATOM     38  H2  THR A   1      10.529  -5.507  24.537  0.00  0.00    +0.119 HD
ENDBRANCH  35  36
BRANCH  35  39
ATOM     39  CB  THR A   1       7.690  -5.319  26.340  0.00  0.00    +0.137 C 
ATOM     40  CG2 THR A   1       6.271  -5.848  26.162  0.00  0.00    +0.040 C 
BRANCH  39  41
ATOM     41  OG1 THR A   1       8.205  -5.804  27.591  0.00  0.00    -0.390 OA
ATOM     42  HG1 THR A   1       8.476  -5.025  28.110  0.00  0.00    +0.210 HD
ENDBRANCH  39  41
ENDBRANCH  35  39
ENDBRANCH  31  35
ENDBRANCH  30  32
BRANCH  30  43
ATOM     43  CB  PHE A   2       5.584  -2.892  22.872  0.00  0.00    +0.067 C 
BRANCH  43  44
ATOM     44  CG  PHE A   2       4.652  -3.939  23.438  0.00  0.00    -0.045 A 
ATOM     45  CD2 PHE A   2       3.839  -3.651  24.542  0.00  0.00    +0.004 A 
ATOM     46  CE2 PHE A   2       2.937  -4.602  25.020  0.00  0.00    +0.000 A 
ATOM     47  CZ  PHE A   2       2.835  -5.846  24.400  0.00  0.00    +0.000 A 
ATOM     48  CE1 PHE A   2       3.639  -6.142  23.301  0.00  0.00    +0.000 A 
ATOM     49  CD1 PHE A   2       4.544  -5.195  22.823  0.00  0.00    +0.004 A 
ENDBRANCH  43  44
ENDBRANCH  30  43
ENDBRANCH  26  30
ENDBRANCH   1  28
BRANCH   1  50
ATOM     50  CB  GLN A   3       7.772   0.267  19.742  0.00  0.00    +0.041 C 
BRANCH  50  51
ATOM     51  CG  GLN A   3       6.366  -0.124  19.287  0.00  0.00    +0.098 C 
BRANCH  51  52
ATOM     52  CD  GLN A   3       5.739   0.896  18.362  0.00  0.00    +0.211 C 
ATOM     53  NE2 GLN A   3       4.568   1.451  18.779  0.00  0.00    -0.329 N 
ATOM     54 HE21 GLN A   3       4.133   2.128  18.164  0.00  0.00    +0.145 HD
ATOM     55 HE22 GLN A   3       4.061   1.152  19.598  0.00  0.00    +0.145 HD
ATOM     56  OE1 GLN A   3       6.270   1.263  17.320  0.00  0.00    -0.276 OA
ENDBRANCH  51  52
ENDBRANCH  50  51
ENDBRANCH   1  50
TORSDOF 22
ENDMDL
MODEL 4
REMARK VINA RESULT:      -6.6      1.877      3.214
REMARK  Name = TFQSAV-mmff94.pdb
REMARK  26 active torsions:
REMARK  status: ('A' for Active; 'I' for Inactive)
REMARK    1  A    between atoms: _1  and  _2
REMARK    2  A    between atoms: _2  and  _3
REMARK    3  A    between atoms: _2  and  _5
REMARK    4  A    between atoms: _5  and  _6
REMARK    5  A    between atoms: _5  and  _7
REMARK    6  A    between atoms: _15  and  _16
REMARK    7  A    between atoms: _16  and  _17
REMARK    8  A    between atoms: _16  and  _19
REMARK    9  A    between atoms: _19  and  _20
REMARK   10  A    between atoms: _35  and  _36
REMARK   11  A    between atoms: _36  and  _37
REMARK   12  A    between atoms: _36  and  _39
REMARK   13  A    between atoms: _39  and  _40
REMARK   14  A    between atoms: _40  and  _41
REMARK   15  A    between atoms: _52  and  _53
REMARK   16  A    between atoms: _53  and  _54
REMARK   17  A    between atoms: _53  and  _56
REMARK   18  A    between atoms: _56  and  _57
REMARK   19  A    between atoms: _63  and  _64
REMARK   20  A    between atoms: _64  and  _65
REMARK   21  A    between atoms: _64  and  _67
REMARK   22  A    between atoms: _73  and  _74
REMARK   23  A    between atoms: _74  and  _75
REMARK   24  A    between atoms: _74  and  _77
REMARK   25  A    between atoms: _77  and  _78
REMARK   26  A    between atoms: _77  and  _79
REMARK                            x       y       z     vdW  Elec       q    Type
REMARK                         _______ _______ _______ _____ _____    ______ ____
ROOT
ATOM      1  CA  GLN A   3       9.054   0.796  21.546  0.00  0.00    +0.159 C 
ENDROOT
BRANCH   1   2
ATOM      2  C   GLN A   3       9.573   1.500  22.815  0.00  0.00    +0.234 C 
ATOM      3  O   GLN A   3       9.327   1.076  23.944  0.00  0.00    -0.274 OA
ATOM      4  N   SER A   4      10.292   2.648  22.603  0.00  0.00    -0.301 N 
ATOM      5  H   SER A   4      10.445   3.017  21.666  0.00  0.00    +0.150 HD
BRANCH   4   6
ATOM      6  CA  SER A   4      10.718   3.514  23.706  0.00  0.00    +0.184 C 
BRANCH   6   7
ATOM      7  C   SER A   4       9.564   4.482  24.013  0.00  0.00    +0.236 C 
ATOM      8  N   ALA A   5       8.306   3.986  23.786  0.00  0.00    -0.303 N 
ATOM      9  H   ALA A   5       8.166   3.036  23.452  0.00  0.00    +0.149 HD
ATOM     10  O   SER A   4       9.770   5.630  24.413  0.00  0.00    -0.274 OA
BRANCH   8  11
ATOM     11  CA  ALA A   5       7.095   4.727  24.117  0.00  0.00    +0.156 C 
ATOM     12  CB  ALA A   5       6.239   4.999  22.886  0.00  0.00    +0.038 C 
BRANCH  11  13
ATOM     13  C   ALA A   5       6.308   3.876  25.128  0.00  0.00    +0.234 C 
ATOM     14  N   VAL A   6       6.773   2.596  25.297  0.00  0.00    -0.304 N 
ATOM     15  H   VAL A   6       7.622   2.294  24.824  0.00  0.00    +0.149 HD
ATOM     16  O   ALA A   5       5.342   4.326  25.747  0.00  0.00    -0.274 OA
BRANCH  14  17
ATOM     17  CA  VAL A   6       6.202   1.663  26.267  0.00  0.00    +0.138 C 
BRANCH  17  18
ATOM     18  CB  VAL A   6       5.200   0.677  25.627  0.00  0.00    +0.010 C 
ATOM     19  CG2 VAL A   6       4.431  -0.129  26.679  0.00  0.00    +0.009 C 
ATOM     20  CG1 VAL A   6       5.901  -0.304  24.677  0.00  0.00    +0.009 C 
ENDBRANCH  17  18
BRANCH  17  21
ATOM     21  C   VAL A   6       7.397   0.921  26.863  0.00  0.00    +0.245 C 
ATOM     22  O   VAL A   6       7.442   0.527  28.028  0.00  0.00    -0.299 OA
ENDBRANCH  17  21
ENDBRANCH  14  17
ENDBRANCH  11  13
ENDBRANCH   8  11
ENDBRANCH   6   7
BRANCH   6  23
ATOM     23  CB  SER A   4      12.009   4.274  23.377  0.00  0.00    +0.187 C 
BRANCH  23  24
ATOM     24  OG  SER A   4      11.769   5.359  22.480  0.00  0.00    -0.393 OA
ATOM     25  H   SER A   4      12.032   6.172  22.947  0.00  0.00    +0.209 HD
ENDBRANCH  23  24
ENDBRANCH   6  23
ENDBRANCH   4   6
ENDBRANCH   1   2
BRANCH   1  28
ATOM     26  C   PHE A   2       9.154  -1.621  22.142  0.00  0.00    +0.234 C 
ATOM     27  O   PHE A   2      10.371  -1.673  21.968  0.00  0.00    -0.274 OA
ATOM     28  N   GLN A   3       8.441  -0.453  21.998  0.00  0.00    -0.302 N 
ATOM     29  H   GLN A   3       7.427  -0.458  22.078  0.00  0.00    +0.150 HD
BRANCH  26  30
ATOM     30  CA  PHE A   2       8.321  -2.830  22.610  0.00  0.00    +0.163 C 
BRANCH  30  32
ATOM     31  C   THR A   1       8.783  -3.896  24.801  0.00  0.00    +0.233 C 
ATOM     32  N   PHE A   2       8.300  -2.837  24.068  0.00  0.00    -0.302 N 
ATOM     33  H   PHE A   2       8.163  -1.954  24.544  0.00  0.00    +0.150 HD
ATOM     34  O   THR A   1       9.193  -4.935  24.286  0.00  0.00    -0.274 OA
BRANCH  31  35
ATOM     35  CA  THR A   1       8.706  -3.684  26.323  0.00  0.00    +0.166 C 
BRANCH  35  36
ATOM     36  N   THR A   1       8.244  -2.296  26.589  0.00  0.00    -0.318 NA
ATOM     37  H1  THR A   1       8.977  -1.684  26.212  0.00  0.00    +0.119 HD
ATOM     38  H2  THR A   1       8.279  -2.141  27.598  0.00  0.00    +0.119 HD
ENDBRANCH  35  36
BRANCH  35  39
ATOM     39  CB  THR A   1       7.765  -4.719  26.976  0.00  0.00    +0.137 C 
ATOM     40  CG2 THR A   1       6.371  -4.669  26.359  0.00  0.00    +0.040 C 
BRANCH  39  41
ATOM     41  OG1 THR A   1       8.308  -6.034  26.772  0.00  0.00    -0.390 OA
ATOM     42  HG1 THR A   1       7.981  -6.595  27.499  0.00  0.00    +0.210 HD
ENDBRANCH  39  41
ENDBRANCH  35  39
ENDBRANCH  31  35
ENDBRANCH  30  32
BRANCH  30  43
ATOM     43  CB  PHE A   2       6.906  -2.725  22.022  0.00  0.00    +0.067 C 
BRANCH  43  44
ATOM     44  CG  PHE A   2       6.037  -3.904  22.396  0.00  0.00    -0.045 A 
ATOM     45  CD2 PHE A   2       6.459  -5.215  22.136  0.00  0.00    +0.004 A 
ATOM     46  CE2 PHE A   2       5.680  -6.300  22.539  0.00  0.00    +0.000 A 
ATOM     47  CZ  PHE A   2       4.476  -6.088  23.209  0.00  0.00    +0.000 A 
ATOM     48  CE1 PHE A   2       4.048  -4.789  23.473  0.00  0.00    +0.000 A 
ATOM     49  CD1 PHE A   2       4.823  -3.703  23.068  0.00  0.00    +0.004 A 
ENDBRANCH  43  44
ENDBRANCH  30  43
ENDBRANCH  26  30
ENDBRANCH   1  28
BRANCH   1  50
ATOM     50  CB  GLN A   3       8.023   1.665  20.809  0.00  0.00    +0.041 C 
BRANCH  50  51
ATOM     51  CG  GLN A   3       6.728   0.928  20.468  0.00  0.00    +0.098 C 
BRANCH  51  52
ATOM     52  CD  GLN A   3       6.615   0.578  19.001  0.00  0.00    +0.211 C 
ATOM     53  NE2 GLN A   3       5.404   0.793  18.419  0.00  0.00    -0.329 N 
ATOM     54 HE21 GLN A   3       5.313   0.553  17.439  0.00  0.00    +0.145 HD
ATOM     55 HE22 GLN A   3       4.575   1.067  18.924  0.00  0.00    +0.145 HD
ATOM     56  OE1 GLN A   3       7.567   0.181  18.337  0.00  0.00    -0.276 OA
ENDBRANCH  51  52
ENDBRANCH  50  51
ENDBRANCH   1  50
TORSDOF 22
ENDMDL
MODEL 5
REMARK VINA RESULT:      -6.6      1.120      1.436
REMARK  Name = TFQSAV-mmff94.pdb
REMARK  26 active torsions:
REMARK  status: ('A' for Active; 'I' for Inactive)
REMARK    1  A    between atoms: _1  and  _2
REMARK    2  A    between atoms: _2  and  _3
REMARK    3  A    between atoms: _2  and  _5
REMARK    4  A    between atoms: _5  and  _6
REMARK    5  A    between atoms: _5  and  _7
REMARK    6  A    between atoms: _15  and  _16
REMARK    7  A    between atoms: _16  and  _17
REMARK    8  A    between atoms: _16  and  _19
REMARK    9  A    between atoms: _19  and  _20
REMARK   10  A    between atoms: _35  and  _36
REMARK   11  A    between atoms: _36  and  _37
REMARK   12  A    between atoms: _36  and  _39
REMARK   13  A    between atoms: _39  and  _40
REMARK   14  A    between atoms: _40  and  _41
REMARK   15  A    between atoms: _52  and  _53
REMARK   16  A    between atoms: _53  and  _54
REMARK   17  A    between atoms: _53  and  _56
REMARK   18  A    between atoms: _56  and  _57
REMARK   19  A    between atoms: _63  and  _64
REMARK   20  A    between atoms: _64  and  _65
REMARK   21  A    between atoms: _64  and  _67
REMARK   22  A    between atoms: _73  and  _74
REMARK   23  A    between atoms: _74  and  _75
REMARK   24  A    between atoms: _74  and  _77
REMARK   25  A    between atoms: _77  and  _78
REMARK   26  A    between atoms: _77  and  _79
REMARK                            x       y       z     vdW  Elec       q    Type
REMARK                         _______ _______ _______ _____ _____    ______ ____
ROOT
ATOM      1  CA  GLN A   3       9.851   0.634  22.288  0.00  0.00    +0.159 C 
ENDROOT
BRANCH   1   2
ATOM      2  C   GLN A   3      10.508   1.606  23.287  0.00  0.00    +0.234 C 
ATOM      3  O   GLN A   3      10.758   1.280  24.448  0.00  0.00    -0.274 OA
ATOM      4  N   SER A   4      10.759   2.867  22.809  0.00  0.00    -0.301 N 
ATOM      5  H   SER A   4      10.500   3.139  21.862  0.00  0.00    +0.150 HD
BRANCH   4   6
ATOM      6  CA  SER A   4      11.232   3.949  23.677  0.00  0.00    +0.184 C 
BRANCH   6   7
ATOM      7  C   SER A   4      10.052   4.901  23.923  0.00  0.00    +0.236 C 
ATOM      8  N   ALA A   5       8.915   4.623  23.209  0.00  0.00    -0.303 N 
ATOM      9  H   ALA A   5       8.871   3.828  22.576  0.00  0.00    +0.149 HD
ATOM     10  O   SER A   4      10.141   5.859  24.694  0.00  0.00    -0.274 OA
BRANCH   8  11
ATOM     11  CA  ALA A   5       7.669   5.359  23.392  0.00  0.00    +0.156 C 
ATOM     12  CB  ALA A   5       7.048   5.765  22.062  0.00  0.00    +0.038 C 
BRANCH  11  13
ATOM     13  C   ALA A   5       6.710   4.436  24.162  0.00  0.00    +0.234 C 
ATOM     14  N   VAL A   6       7.292   3.693  25.158  0.00  0.00    -0.304 N 
ATOM     15  H   VAL A   6       8.275   3.825  25.387  0.00  0.00    +0.149 HD
ATOM     16  O   ALA A   5       5.505   4.388  23.905  0.00  0.00    -0.274 OA
BRANCH  14  17
ATOM     17  CA  VAL A   6       6.531   2.814  26.045  0.00  0.00    +0.138 C 
BRANCH  17  18
ATOM     18  CB  VAL A   6       6.821   1.319  25.795  0.00  0.00    +0.010 C 
ATOM     19  CG2 VAL A   6       5.923   0.731  24.700  0.00  0.00    +0.009 C 
ATOM     20  CG1 VAL A   6       6.640   0.487  27.072  0.00  0.00    +0.009 C 
ENDBRANCH  17  18
BRANCH  17  21
ATOM     21  C   VAL A   6       6.935   3.223  27.460  0.00  0.00    +0.245 C 
ATOM     22  O   VAL A   6       7.436   4.313  27.737  0.00  0.00    -0.299 OA
ENDBRANCH  17  21
ENDBRANCH  14  17
ENDBRANCH  11  13
ENDBRANCH   8  11
ENDBRANCH   6   7
BRANCH   6  23
ATOM     23  CB  SER A   4      12.430   4.691  23.072  0.00  0.00    +0.187 C 
BRANCH  23  24
ATOM     24  OG  SER A   4      12.961   5.661  23.975  0.00  0.00    -0.393 OA
ATOM     25  H   SER A   4      12.210   6.005  24.491  0.00  0.00    +0.209 HD
ENDBRANCH  23  24
ENDBRANCH   6  23
ENDBRANCH   4   6
ENDBRANCH   1   2
BRANCH   1  28
ATOM     26  C   PHE A   2       9.167  -1.591  23.176  0.00  0.00    +0.234 C 
ATOM     27  O   PHE A   2      10.127  -2.159  22.656  0.00  0.00    -0.274 OA
ATOM     28  N   GLN A   3       8.979  -0.232  23.081  0.00  0.00    -0.302 N 
ATOM     29  H   GLN A   3       8.137   0.197  23.459  0.00  0.00    +0.150 HD
BRANCH  26  30
ATOM     30  CA  PHE A   2       8.128  -2.327  24.044  0.00  0.00    +0.163 C 
BRANCH  30  32
ATOM     31  C   THR A   1       6.373  -3.547  22.785  0.00  0.00    +0.233 C 
ATOM     32  N   PHE A   2       7.646  -3.487  23.302  0.00  0.00    -0.302 N 
ATOM     33  H   PHE A   2       8.334  -4.140  22.948  0.00  0.00    +0.150 HD
ATOM     34  O   THR A   1       5.531  -2.671  22.974  0.00  0.00    -0.274 OA
BRANCH  31  35
ATOM     35  CA  THR A   1       6.082  -4.839  22.002  0.00  0.00    +0.166 C 
BRANCH  35  36
ATOM     36  N   THR A   1       7.349  -5.604  21.855  0.00  0.00    -0.318 NA
ATOM     37  H1  THR A   1       7.584  -5.933  22.798  0.00  0.00    +0.119 HD
ATOM     38  H2  THR A   1       8.092  -4.939  21.627  0.00  0.00    +0.119 HD
ENDBRANCH  35  36
BRANCH  35  39
ATOM     39  CB  THR A   1       5.002  -5.683  22.713  0.00  0.00    +0.137 C 
ATOM     40  CG2 THR A   1       5.408  -6.011  24.146  0.00  0.00    +0.040 C 
BRANCH  39  41
ATOM     41  OG1 THR A   1       3.775  -4.934  22.745  0.00  0.00    -0.390 OA
ATOM     42  HG1 THR A   1       3.561  -4.778  23.682  0.00  0.00    +0.210 HD
ENDBRANCH  39  41
ENDBRANCH  35  39
ENDBRANCH  31  35
ENDBRANCH  30  32
BRANCH  30  43
ATOM     43  CB  PHE A   2       8.778  -2.734  25.374  0.00  0.00    +0.067 C 
BRANCH  43  44
ATOM     44  CG  PHE A   2       7.841  -3.527  26.256  0.00  0.00    -0.045 A 
ATOM     45  CD2 PHE A   2       6.600  -3.001  26.636  0.00  0.00    +0.004 A 
ATOM     46  CE2 PHE A   2       5.715  -3.763  27.399  0.00  0.00    +0.000 A 
ATOM     47  CZ  PHE A   2       6.058  -5.058  27.786  0.00  0.00    +0.000 A 
ATOM     48  CE1 PHE A   2       7.290  -5.590  27.413  0.00  0.00    +0.000 A 
ATOM     49  CD1 PHE A   2       8.178  -4.829  26.653  0.00  0.00    +0.004 A 
ENDBRANCH  43  44
ENDBRANCH  30  43
ENDBRANCH  26  30
ENDBRANCH   1  28
BRANCH   1  50
ATOM     50  CB  GLN A   3       9.038   1.389  21.226  0.00  0.00    +0.041 C 
BRANCH  50  51
ATOM     51  CG  GLN A   3       7.544   1.068  21.251  0.00  0.00    +0.098 C 
BRANCH  51  52
ATOM     52  CD  GLN A   3       7.095   0.255  20.057  0.00  0.00    +0.211 C 
ATOM     53  NE2 GLN A   3       5.912  -0.406  20.187  0.00  0.00    -0.329 N 
ATOM     54 HE21 GLN A   3       5.605  -0.962  19.398  0.00  0.00    +0.145 HD
ATOM     55 HE22 GLN A   3       5.388  -0.463  21.047  0.00  0.00    +0.145 HD
ATOM     56  OE1 GLN A   3       7.714   0.229  19.000  0.00  0.00    -0.276 OA
ENDBRANCH  51  52
ENDBRANCH  50  51
ENDBRANCH   1  50
TORSDOF 22
ENDMDL
MODEL 6
REMARK VINA RESULT:      -6.6      2.620      5.068
REMARK  Name = TFQSAV-mmff94.pdb
REMARK  26 active torsions:
REMARK  status: ('A' for Active; 'I' for Inactive)
REMARK    1  A    between atoms: _1  and  _2
REMARK    2  A    between atoms: _2  and  _3
REMARK    3  A    between atoms: _2  and  _5
REMARK    4  A    between atoms: _5  and  _6
REMARK    5  A    between atoms: _5  and  _7
REMARK    6  A    between atoms: _15  and  _16
REMARK    7  A    between atoms: _16  and  _17
REMARK    8  A    between atoms: _16  and  _19
REMARK    9  A    between atoms: _19  and  _20
REMARK   10  A    between atoms: _35  and  _36
REMARK   11  A    between atoms: _36  and  _37
REMARK   12  A    between atoms: _36  and  _39
REMARK   13  A    between atoms: _39  and  _40
REMARK   14  A    between atoms: _40  and  _41
REMARK   15  A    between atoms: _52  and  _53
REMARK   16  A    between atoms: _53  and  _54
REMARK   17  A    between atoms: _53  and  _56
REMARK   18  A    between atoms: _56  and  _57
REMARK   19  A    between atoms: _63  and  _64
REMARK   20  A    between atoms: _64  and  _65
REMARK   21  A    between atoms: _64  and  _67
REMARK   22  A    between atoms: _73  and  _74
REMARK   23  A    between atoms: _74  and  _75
REMARK   24  A    between atoms: _74  and  _77
REMARK   25  A    between atoms: _77  and  _78
REMARK   26  A    between atoms: _77  and  _79
REMARK                            x       y       z     vdW  Elec       q    Type
REMARK                         _______ _______ _______ _____ _____    ______ ____
ROOT
ATOM      1  CA  GLN A   3       8.542  -1.374  26.571  0.00  0.00    +0.159 C 
ENDROOT
BRANCH   1   2
ATOM      2  C   GLN A   3       7.381  -0.393  26.825  0.00  0.00    +0.234 C 
ATOM      3  O   GLN A   3       6.303  -0.763  27.293  0.00  0.00    -0.274 OA
ATOM      4  N   SER A   4       7.613   0.908  26.460  0.00  0.00    -0.301 N 
ATOM      5  H   SER A   4       8.490   1.192  26.026  0.00  0.00    +0.150 HD
BRANCH   4   6
ATOM      6  CA  SER A   4       6.559   1.926  26.490  0.00  0.00    +0.184 C 
BRANCH   6   7
ATOM      7  C   SER A   4       6.044   2.109  25.054  0.00  0.00    +0.236 C 
ATOM      8  N   ALA A   5       6.857   2.843  24.229  0.00  0.00    -0.303 N 
ATOM      9  H   ALA A   5       7.742   3.219  24.559  0.00  0.00    +0.149 HD
ATOM     10  O   SER A   4       4.963   1.644  24.688  0.00  0.00    -0.274 OA
BRANCH   8  11
ATOM     11  CA  ALA A   5       6.576   3.033  22.811  0.00  0.00    +0.156 C 
ATOM     12  CB  ALA A   5       6.959   4.428  22.336  0.00  0.00    +0.038 C 
BRANCH  11  13
ATOM     13  C   ALA A   5       7.389   1.974  22.046  0.00  0.00    +0.234 C 
ATOM     14  N   VAL A   6       6.714   0.813  21.765  0.00  0.00    -0.304 N 
ATOM     15  H   VAL A   6       5.727   0.726  21.999  0.00  0.00    +0.149 HD
ATOM     16  O   ALA A   5       8.556   2.172  21.701  0.00  0.00    -0.274 OA
BRANCH  14  17
ATOM     17  CA  VAL A   6       7.295  -0.278  20.984  0.00  0.00    +0.138 C 
BRANCH  17  18
ATOM     18  CB  VAL A   6       6.899  -1.671  21.518  0.00  0.00    +0.010 C 
ATOM     19  CG2 VAL A   6       5.825  -2.338  20.651  0.00  0.00    +0.009 C 
ATOM     20  CG1 VAL A   6       6.383  -1.596  22.962  0.00  0.00    +0.009 C 
ENDBRANCH  17  18
BRANCH  17  21
ATOM     21  C   VAL A   6       6.784  -0.069  19.560  0.00  0.00    +0.245 C 
ATOM     22  O   VAL A   6       7.520   0.018  18.577  0.00  0.00    -0.299 OA
ENDBRANCH  17  21
ENDBRANCH  14  17
ENDBRANCH  11  13
ENDBRANCH   8  11
ENDBRANCH   6   7
BRANCH   6  23
ATOM     23  CB  SER A   4       7.055   3.253  27.078  0.00  0.00    +0.187 C 
BRANCH  23  24
ATOM     24  OG  SER A   4       7.469   3.106  28.436  0.00  0.00    -0.393 OA
ATOM     25  H   SER A   4       8.432   2.956  28.421  0.00  0.00    +0.209 HD
ENDBRANCH  23  24
ENDBRANCH   6  23
ENDBRANCH   4   6
ENDBRANCH   1   2
BRANCH   1  28
ATOM     26  C   PHE A   2       8.499  -3.862  26.460  0.00  0.00    +0.234 C 
ATOM     27  O   PHE A   2       9.541  -3.967  27.107  0.00  0.00    -0.274 OA
ATOM     28  N   GLN A   3       7.923  -2.643  26.188  0.00  0.00    -0.302 N 
ATOM     29  H   GLN A   3       7.103  -2.585  25.590  0.00  0.00    +0.150 HD
BRANCH  26  30
ATOM     30  CA  PHE A   2       7.699  -5.079  25.957  0.00  0.00    +0.163 C 
BRANCH  30  32
ATOM     31  C   THR A   1       6.433  -5.481  28.051  0.00  0.00    +0.233 C 
ATOM     32  N   PHE A   2       7.340  -5.901  27.107  0.00  0.00    -0.302 N 
ATOM     33  H   PHE A   2       7.569  -6.887  27.073  0.00  0.00    +0.150 HD
ATOM     34  O   THR A   1       5.920  -4.363  28.038  0.00  0.00    -0.274 OA
BRANCH  31  35
ATOM     35  CA  THR A   1       6.166  -6.517  29.158  0.00  0.00    +0.166 C 
BRANCH  35  36
ATOM     36  N   THR A   1       6.208  -5.828  30.475  0.00  0.00    -0.318 NA
ATOM     37  H1  THR A   1       7.155  -5.441  30.555  0.00  0.00    +0.119 HD
ATOM     38  H2  THR A   1       6.164  -6.543  31.205  0.00  0.00    +0.119 HD
ENDBRANCH  35  36
BRANCH  35  39
ATOM     39  CB  THR A   1       4.809  -7.220  28.940  0.00  0.00    +0.137 C 
ATOM     40  CG2 THR A   1       3.707  -6.567  29.767  0.00  0.00    +0.040 C 
BRANCH  39  41
ATOM     41  OG1 THR A   1       4.455  -7.125  27.550  0.00  0.00    -0.390 OA
ATOM     42  HG1 THR A   1       4.968  -6.387  27.174  0.00  0.00    +0.210 HD
ENDBRANCH  39  41
ENDBRANCH  35  39
ENDBRANCH  31  35
ENDBRANCH  30  32
BRANCH  30  43
ATOM     43  CB  PHE A   2       6.455  -4.587  25.201  0.00  0.00    +0.067 C 
BRANCH  43  44
ATOM     44  CG  PHE A   2       6.393  -5.115  23.786  0.00  0.00    -0.045 A 
ATOM     45  CD2 PHE A   2       5.169  -5.483  23.213  0.00  0.00    +0.004 A 
ATOM     46  CE2 PHE A   2       5.113  -5.911  21.886  0.00  0.00    +0.000 A 
ATOM     47  CZ  PHE A   2       6.274  -5.972  21.119  0.00  0.00    +0.000 A 
ATOM     48  CE1 PHE A   2       7.497  -5.607  21.679  0.00  0.00    +0.000 A 
ATOM     49  CD1 PHE A   2       7.557  -5.183  23.006  0.00  0.00    +0.004 A 
ENDBRANCH  43  44
ENDBRANCH  30  43
ENDBRANCH  26  30
ENDBRANCH   1  28
BRANCH   1  50
ATOM     50  CB  GLN A   3       9.465  -0.867  25.452  0.00  0.00    +0.041 C 
BRANCH  50  51
ATOM     51  CG  GLN A   3       9.597  -1.836  24.277  0.00  0.00    +0.098 C 
BRANCH  51  52
ATOM     52  CD  GLN A   3      10.186  -1.190  23.042  0.00  0.00    +0.211 C 
ATOM     53  NE2 GLN A   3      10.352   0.159  23.086  0.00  0.00    -0.329 N 
ATOM     54 HE21 GLN A   3      10.736   0.605  22.261  0.00  0.00    +0.145 HD
ATOM     55 HE22 GLN A   3      10.018   0.746  23.835  0.00  0.00    +0.145 HD
ATOM     56  OE1 GLN A   3      10.558  -1.835  22.069  0.00  0.00    -0.276 OA
ENDBRANCH  51  52
ENDBRANCH  50  51
ENDBRANCH   1  50
TORSDOF 22
ENDMDL
MODEL 7
REMARK VINA RESULT:      -6.6      2.714      7.773
REMARK  Name = TFQSAV-mmff94.pdb
REMARK  26 active torsions:
REMARK  status: ('A' for Active; 'I' for Inactive)
REMARK    1  A    between atoms: _1  and  _2
REMARK    2  A    between atoms: _2  and  _3
REMARK    3  A    between atoms: _2  and  _5
REMARK    4  A    between atoms: _5  and  _6
REMARK    5  A    between atoms: _5  and  _7
REMARK    6  A    between atoms: _15  and  _16
REMARK    7  A    between atoms: _16  and  _17
REMARK    8  A    between atoms: _16  and  _19
REMARK    9  A    between atoms: _19  and  _20
REMARK   10  A    between atoms: _35  and  _36
REMARK   11  A    between atoms: _36  and  _37
REMARK   12  A    between atoms: _36  and  _39
REMARK   13  A    between atoms: _39  and  _40
REMARK   14  A    between atoms: _40  and  _41
REMARK   15  A    between atoms: _52  and  _53
REMARK   16  A    between atoms: _53  and  _54
REMARK   17  A    between atoms: _53  and  _56
REMARK   18  A    between atoms: _56  and  _57
REMARK   19  A    between atoms: _63  and  _64
REMARK   20  A    between atoms: _64  and  _65
REMARK   21  A    between atoms: _64  and  _67
REMARK   22  A    between atoms: _73  and  _74
REMARK   23  A    between atoms: _74  and  _75
REMARK   24  A    between atoms: _74  and  _77
REMARK   25  A    between atoms: _77  and  _78
REMARK   26  A    between atoms: _77  and  _79
REMARK                            x       y       z     vdW  Elec       q    Type
REMARK                         _______ _______ _______ _____ _____    ______ ____
ROOT
ATOM      1  CA  GLN A   3       8.124  -3.123  23.147  0.00  0.00    +0.159 C 
ENDROOT
BRANCH   1   2
ATOM      2  C   GLN A   3       6.753  -3.720  22.773  0.00  0.00    +0.234 C 
ATOM      3  O   GLN A   3       6.240  -3.537  21.669  0.00  0.00    -0.274 OA
ATOM      4  N   SER A   4       6.128  -4.433  23.764  0.00  0.00    -0.301 N 
ATOM      5  H   SER A   4       6.540  -4.533  24.690  0.00  0.00    +0.150 HD
BRANCH   4   6
ATOM      6  CA  SER A   4       4.756  -4.927  23.619  0.00  0.00    +0.184 C 
BRANCH   6   7
ATOM      7  C   SER A   4       4.072  -4.817  24.990  0.00  0.00    +0.236 C 
ATOM      8  N   ALA A   5       4.899  -4.492  26.035  0.00  0.00    -0.303 N 
ATOM      9  H   ALA A   5       5.891  -4.325  25.889  0.00  0.00    +0.149 HD
ATOM     10  O   SER A   4       2.866  -5.031  25.133  0.00  0.00    -0.274 OA
BRANCH   8  11
ATOM     11  CA  ALA A   5       4.406  -4.246  27.385  0.00  0.00    +0.156 C 
ATOM     12  CB  ALA A   5       5.289  -4.898  28.441  0.00  0.00    +0.038 C 
BRANCH  11  13
ATOM     13  C   ALA A   5       4.383  -2.721  27.585  0.00  0.00    +0.234 C 
ATOM     14  N   VAL A   6       5.176  -2.009  26.720  0.00  0.00    -0.304 N 
ATOM     15  H   VAL A   6       5.670  -2.486  25.969  0.00  0.00    +0.149 HD
ATOM     16  O   ALA A   5       3.686  -2.188  28.451  0.00  0.00    -0.274 OA
BRANCH  14  17
ATOM     17  CA  VAL A   6       5.228  -0.548  26.708  0.00  0.00    +0.138 C 
BRANCH  17  18
ATOM     18  CB  VAL A   6       6.243   0.020  27.724  0.00  0.00    +0.010 C 
ATOM     19  CG2 VAL A   6       6.069   1.529  27.932  0.00  0.00    +0.009 C 
ATOM     20  CG1 VAL A   6       7.689  -0.249  27.289  0.00  0.00    +0.009 C 
ENDBRANCH  17  18
BRANCH  17  21
ATOM     21  C   VAL A   6       5.613  -0.171  25.279  0.00  0.00    +0.245 C 
ATOM     22  O   VAL A   6       5.568  -0.956  24.332  0.00  0.00    -0.299 OA
ENDBRANCH  17  21
ENDBRANCH  14  17
ENDBRANCH  11  13
ENDBRANCH   8  11
ENDBRANCH   6   7
BRANCH   6  23
ATOM     23  CB  SER A   4       4.715  -6.367  23.091  0.00  0.00    +0.187 C 
BRANCH  23  24
ATOM     24  OG  SER A   4       4.533  -7.311  24.147  0.00  0.00    -0.393 OA
ATOM     25  H   SER A   4       5.002  -6.957  24.923  0.00  0.00    +0.209 HD
ENDBRANCH  23  24
ENDBRANCH   6  23
ENDBRANCH   4   6
ENDBRANCH   1   2
BRANCH   1  28
ATOM     26  C   PHE A   2       9.469  -1.331  22.056  0.00  0.00    +0.234 C 
ATOM     27  O   PHE A   2      10.534  -1.878  22.340  0.00  0.00    -0.274 OA
ATOM     28  N   GLN A   3       8.251  -1.887  22.374  0.00  0.00    -0.302 N 
ATOM     29  H   GLN A   3       7.391  -1.377  22.190  0.00  0.00    +0.150 HD
BRANCH  26  30
ATOM     30  CA  PHE A   2       9.387  -0.019  21.253  0.00  0.00    +0.163 C 
BRANCH  30  32
ATOM     31  C   THR A   1       7.435   0.147  19.733  0.00  0.00    +0.233 C 
ATOM     32  N   PHE A   2       7.983   0.272  20.988  0.00  0.00    -0.302 N 
ATOM     33  H   PHE A   2       7.352   0.321  21.778  0.00  0.00    +0.150 HD
ATOM     34  O   THR A   1       8.098  -0.142  18.738  0.00  0.00    -0.274 OA
BRANCH  31  35
ATOM     35  CA  THR A   1       5.929   0.462  19.679  0.00  0.00    +0.166 C 
BRANCH  35  36
ATOM     36  N   THR A   1       5.697   1.790  20.306  0.00  0.00    -0.318 NA
ATOM     37  H1  THR A   1       5.472   2.425  19.532  0.00  0.00    +0.119 HD
ATOM     38  H2  THR A   1       6.593   2.131  20.661  0.00  0.00    +0.119 HD
ENDBRANCH  35  36
BRANCH  35  39
ATOM     39  CB  THR A   1       5.412   0.434  18.225  0.00  0.00    +0.137 C 
ATOM     40  CG2 THR A   1       6.059   1.531  17.385  0.00  0.00    +0.040 C 
BRANCH  39  41
ATOM     41  OG1 THR A   1       5.735  -0.839  17.641  0.00  0.00    -0.390 OA
ATOM     42  HG1 THR A   1       6.460  -0.688  17.008  0.00  0.00    +0.210 HD
ENDBRANCH  39  41
ENDBRANCH  35  39
ENDBRANCH  31  35
ENDBRANCH  30  32
BRANCH  30  43
ATOM     43  CB  PHE A   2      10.058   1.106  22.056  0.00  0.00    +0.067 C 
BRANCH  43  44
ATOM     44  CG  PHE A   2       9.064   1.916  22.856  0.00  0.00    -0.045 A 
ATOM     45  CD2 PHE A   2       8.899   1.692  24.229  0.00  0.00    +0.004 A 
ATOM     46  CE2 PHE A   2       8.024   2.485  24.973  0.00  0.00    +0.000 A 
ATOM     47  CZ  PHE A   2       7.310   3.511  24.355  0.00  0.00    +0.000 A 
ATOM     48  CE1 PHE A   2       7.468   3.742  22.990  0.00  0.00    +0.000 A 
ATOM     49  CD1 PHE A   2       8.338   2.949  22.244  0.00  0.00    +0.004 A 
ENDBRANCH  43  44
ENDBRANCH  30  43
ENDBRANCH  26  30
ENDBRANCH   1  28
BRANCH   1  50
ATOM     50  CB  GLN A   3       8.213  -2.827  24.651  0.00  0.00    +0.041 C 
BRANCH  50  51
ATOM     51  CG  GLN A   3       9.310  -3.612  25.369  0.00  0.00    +0.098 C 
BRANCH  51  52
ATOM     52  CD  GLN A   3       8.934  -5.055  25.625  0.00  0.00    +0.211 C 
ATOM     53  NE2 GLN A   3       9.937  -5.969  25.523  0.00  0.00    -0.329 N 
ATOM     54 HE21 GLN A   3       9.696  -6.939  25.682  0.00  0.00    +0.145 HD
ATOM     55 HE22 GLN A   3      10.867  -5.753  25.196  0.00  0.00    +0.145 HD
ATOM     56  OE1 GLN A   3       7.807  -5.398  25.967  0.00  0.00    -0.276 OA
ENDBRANCH  51  52
ENDBRANCH  50  51
ENDBRANCH   1  50
TORSDOF 22
ENDMDL
MODEL 8
REMARK VINA RESULT:      -6.6      2.360      4.568
REMARK  Name = TFQSAV-mmff94.pdb
REMARK  26 active torsions:
REMARK  status: ('A' for Active; 'I' for Inactive)
REMARK    1  A    between atoms: _1  and  _2
REMARK    2  A    between atoms: _2  and  _3
REMARK    3  A    between atoms: _2  and  _5
REMARK    4  A    between atoms: _5  and  _6
REMARK    5  A    between atoms: _5  and  _7
REMARK    6  A    between atoms: _15  and  _16
REMARK    7  A    between atoms: _16  and  _17
REMARK    8  A    between atoms: _16  and  _19
REMARK    9  A    between atoms: _19  and  _20
REMARK   10  A    between atoms: _35  and  _36
REMARK   11  A    between atoms: _36  and  _37
REMARK   12  A    between atoms: _36  and  _39
REMARK   13  A    between atoms: _39  and  _40
REMARK   14  A    between atoms: _40  and  _41
REMARK   15  A    between atoms: _52  and  _53
REMARK   16  A    between atoms: _53  and  _54
REMARK   17  A    between atoms: _53  and  _56
REMARK   18  A    between atoms: _56  and  _57
REMARK   19  A    between atoms: _63  and  _64
REMARK   20  A    between atoms: _64  and  _65
REMARK   21  A    between atoms: _64  and  _67
REMARK   22  A    between atoms: _73  and  _74
REMARK   23  A    between atoms: _74  and  _75
REMARK   24  A    between atoms: _74  and  _77
REMARK   25  A    between atoms: _77  and  _78
REMARK   26  A    between atoms: _77  and  _79
REMARK                            x       y       z     vdW  Elec       q    Type
REMARK                         _______ _______ _______ _____ _____    ______ ____
ROOT
ATOM      1  CA  GLN A   3       6.758  -1.145  21.009  0.00  0.00    +0.159 C 
ENDROOT
BRANCH   1   2
ATOM      2  C   GLN A   3       7.230   0.275  21.376  0.00  0.00    +0.234 C 
ATOM      3  O   GLN A   3       8.311   0.724  20.993  0.00  0.00    -0.274 OA
ATOM      4  N   SER A   4       6.387   0.989  22.188  0.00  0.00    -0.301 N 
ATOM      5  H   SER A   4       5.519   0.588  22.540  0.00  0.00    +0.150 HD
BRANCH   4   6
ATOM      6  CA  SER A   4       6.764   2.288  22.752  0.00  0.00    +0.184 C 
BRANCH   6   7
ATOM      7  C   SER A   4       7.693   2.027  23.948  0.00  0.00    +0.236 C 
ATOM      8  N   ALA A   5       7.294   1.023  24.792  0.00  0.00    -0.303 N 
ATOM      9  H   ALA A   5       6.447   0.489  24.614  0.00  0.00    +0.149 HD
ATOM     10  O   SER A   4       8.710   2.697  24.136  0.00  0.00    -0.274 OA
BRANCH   8  11
ATOM     11  CA  ALA A   5       8.103   0.573  25.918  0.00  0.00    +0.156 C 
ATOM     12  CB  ALA A   5       7.273  -0.178  26.952  0.00  0.00    +0.038 C 
BRANCH  11  13
ATOM     13  C   ALA A   5       9.194  -0.349  25.349  0.00  0.00    +0.234 C 
ATOM     14  N   VAL A   6       8.785  -1.628  25.062  0.00  0.00    -0.304 N 
ATOM     15  H   VAL A   6       7.806  -1.886  25.165  0.00  0.00    +0.149 HD
ATOM     16  O   ALA A   5      10.345   0.047  25.152  0.00  0.00    -0.274 OA
BRANCH  14  17
ATOM     17  CA  VAL A   6       9.659  -2.625  24.447  0.00  0.00    +0.138 C 
BRANCH  17  18
ATOM     18  CB  VAL A   6       9.345  -4.062  24.916  0.00  0.00    +0.010 C 
ATOM     19  CG2 VAL A   6       8.265  -4.728  24.055  0.00  0.00    +0.009 C 
ATOM     20  CG1 VAL A   6       8.888  -4.092  26.380  0.00  0.00    +0.009 C 
ENDBRANCH  17  18
BRANCH  17  21
ATOM     21  C   VAL A   6       9.440  -2.478  22.943  0.00  0.00    +0.245 C 
ATOM     22  O   VAL A   6      10.197  -1.849  22.203  0.00  0.00    -0.299 OA
ENDBRANCH  17  21
ENDBRANCH  14  17
ENDBRANCH  11  13
ENDBRANCH   8  11
ENDBRANCH   6   7
BRANCH   6  23
ATOM     23  CB  SER A   4       5.539   3.113  23.168  0.00  0.00    +0.187 C 
BRANCH  23  24
ATOM     24  OG  SER A   4       4.479   2.282  23.641  0.00  0.00    -0.393 OA
ATOM     25  H   SER A   4       3.828   2.871  24.063  0.00  0.00    +0.209 HD
ENDBRANCH  23  24
ENDBRANCH   6  23
ENDBRANCH   4   6
ENDBRANCH   1   2
BRANCH   1  28
ATOM     26  C   PHE A   2       5.567  -2.928  22.278  0.00  0.00    +0.234 C 
ATOM     27  O   PHE A   2       5.878  -3.796  21.463  0.00  0.00    -0.274 OA
ATOM     28  N   GLN A   3       5.986  -1.623  22.156  0.00  0.00    -0.302 N 
ATOM     29  H   GLN A   3       5.652  -0.915  22.805  0.00  0.00    +0.150 HD
BRANCH  26  30
ATOM     30  CA  PHE A   2       4.749  -3.225  23.549  0.00  0.00    +0.163 C 
BRANCH  30  32
ATOM     31  C   THR A   1       3.543  -5.388  23.695  0.00  0.00    +0.233 C 
ATOM     32  N   PHE A   2       4.715  -4.670  23.748  0.00  0.00    -0.302 N 
ATOM     33  H   PHE A   2       5.587  -5.178  23.672  0.00  0.00    +0.150 HD
ATOM     34  O   THR A   1       2.440  -4.861  23.555  0.00  0.00    -0.274 OA
BRANCH  31  35
ATOM     35  CA  THR A   1       3.734  -6.902  23.889  0.00  0.00    +0.166 C 
BRANCH  35  36
ATOM     36  N   THR A   1       5.135  -7.255  23.539  0.00  0.00    -0.318 NA
ATOM     37  H1  THR A   1       5.570  -6.380  23.224  0.00  0.00    +0.119 HD
ATOM     38  H2  THR A   1       5.112  -7.841  22.701  0.00  0.00    +0.119 HD
ENDBRANCH  35  36
BRANCH  35  39
ATOM     39  CB  THR A   1       3.401  -7.318  25.338  0.00  0.00    +0.137 C 
ATOM     40  CG2 THR A   1       4.520  -6.928  26.299  0.00  0.00    +0.040 C 
BRANCH  39  41
ATOM     41  OG1 THR A   1       2.194  -6.652  25.747  0.00  0.00    -0.390 OA
ATOM     42  HG1 THR A   1       2.398  -5.701  25.804  0.00  0.00    +0.210 HD
ENDBRANCH  39  41
ENDBRANCH  35  39
ENDBRANCH  31  35
ENDBRANCH  30  32
BRANCH  30  43
ATOM     43  CB  PHE A   2       5.391  -2.503  24.743  0.00  0.00    +0.067 C 
BRANCH  43  44
ATOM     44  CG  PHE A   2       4.717  -2.841  26.053  0.00  0.00    -0.045 A 
ATOM     45  CD2 PHE A   2       3.337  -2.659  26.215  0.00  0.00    +0.004 A 
ATOM     46  CE2 PHE A   2       2.712  -3.030  27.406  0.00  0.00    +0.000 A 
ATOM     47  CZ  PHE A   2       3.456  -3.591  28.443  0.00  0.00    +0.000 A 
ATOM     48  CE1 PHE A   2       4.828  -3.777  28.292  0.00  0.00    +0.000 A 
ATOM     49  CD1 PHE A   2       5.456  -3.403  27.104  0.00  0.00    +0.004 A 
ENDBRANCH  43  44
ENDBRANCH  30  43
ENDBRANCH  26  30
ENDBRANCH   1  28
BRANCH   1  50
ATOM     50  CB  GLN A   3       5.889  -1.135  19.743  0.00  0.00    +0.041 C 
BRANCH  50  51
ATOM     51  CG  GLN A   3       6.562  -0.473  18.540  0.00  0.00    +0.098 C 
BRANCH  51  52
ATOM     52  CD  GLN A   3       5.858   0.788  18.089  0.00  0.00    +0.211 C 
ATOM     53  NE2 GLN A   3       4.785   1.180  18.829  0.00  0.00    -0.329 N 
ATOM     54 HE21 GLN A   3       4.299   2.017  18.532  0.00  0.00    +0.145 HD
ATOM     55 HE22 GLN A   3       4.385   0.634  19.578  0.00  0.00    +0.145 HD
ATOM     56  OE1 GLN A   3       6.252   1.469  17.150  0.00  0.00    -0.276 OA
ENDBRANCH  51  52
ENDBRANCH  50  51
ENDBRANCH   1  50
TORSDOF 22
ENDMDL
MODEL 9
REMARK VINA RESULT:      -6.5      2.768      6.114
REMARK  Name = TFQSAV-mmff94.pdb
REMARK  26 active torsions:
REMARK  status: ('A' for Active; 'I' for Inactive)
REMARK    1  A    between atoms: _1  and  _2
REMARK    2  A    between atoms: _2  and  _3
REMARK    3  A    between atoms: _2  and  _5
REMARK    4  A    between atoms: _5  and  _6
REMARK    5  A    between atoms: _5  and  _7
REMARK    6  A    between atoms: _15  and  _16
REMARK    7  A    between atoms: _16  and  _17
REMARK    8  A    between atoms: _16  and  _19
REMARK    9  A    between atoms: _19  and  _20
REMARK   10  A    between atoms: _35  and  _36
REMARK   11  A    between atoms: _36  and  _37
REMARK   12  A    between atoms: _36  and  _39
REMARK   13  A    between atoms: _39  and  _40
REMARK   14  A    between atoms: _40  and  _41
REMARK   15  A    between atoms: _52  and  _53
REMARK   16  A    between atoms: _53  and  _54
REMARK   17  A    between atoms: _53  and  _56
REMARK   18  A    between atoms: _56  and  _57
REMARK   19  A    between atoms: _63  and  _64
REMARK   20  A    between atoms: _64  and  _65
REMARK   21  A    between atoms: _64  and  _67
REMARK   22  A    between atoms: _73  and  _74
REMARK   23  A    between atoms: _74  and  _75
REMARK   24  A    between atoms: _74  and  _77
REMARK   25  A    between atoms: _77  and  _78
REMARK   26  A    between atoms: _77  and  _79
REMARK                            x       y       z     vdW  Elec       q    Type
REMARK                         _______ _______ _______ _____ _____    ______ ____
ROOT
ATOM      1  CA  GLN A   3       9.311  -0.177  25.014  0.00  0.00    +0.159 C 
ENDROOT
BRANCH   1   2
ATOM      2  C   GLN A   3       8.704  -0.266  26.427  0.00  0.00    +0.234 C 
ATOM      3  O   GLN A   3       8.945  -1.207  27.184  0.00  0.00    -0.274 OA
ATOM      4  N   SER A   4       7.848   0.749  26.770  0.00  0.00    -0.301 N 
ATOM      5  H   SER A   4       7.616   1.495  26.115  0.00  0.00    +0.150 HD
BRANCH   4   6
ATOM      6  CA  SER A   4       7.070   0.726  28.012  0.00  0.00    +0.184 C 
BRANCH   6   7
ATOM      7  C   SER A   4       5.682   0.155  27.684  0.00  0.00    +0.236 C 
ATOM      8  N   ALA A   5       5.660  -1.173  27.341  0.00  0.00    -0.303 N 
ATOM      9  H   ALA A   5       6.512  -1.727  27.324  0.00  0.00    +0.149 HD
ATOM     10  O   SER A   4       4.669   0.857  27.708  0.00  0.00    -0.274 OA
BRANCH   8  11
ATOM     11  CA  ALA A   5       4.422  -1.903  27.096  0.00  0.00    +0.156 C 
ATOM     12  CB  ALA A   5       4.412  -2.564  25.724  0.00  0.00    +0.038 C 
BRANCH  11  13
ATOM     13  C   ALA A   5       4.306  -2.972  28.197  0.00  0.00    +0.234 C 
ATOM     14  N   VAL A   6       4.614  -4.250  27.801  0.00  0.00    -0.304 N 
ATOM     15  H   VAL A   6       4.960  -4.424  26.860  0.00  0.00    +0.149 HD
ATOM     16  O   ALA A   5       3.976  -2.687  29.350  0.00  0.00    -0.274 OA
BRANCH  14  17
ATOM     17  CA  VAL A   6       4.633  -5.386  28.722  0.00  0.00    +0.138 C 
BRANCH  17  18
ATOM     18  CB  VAL A   6       3.673  -6.516  28.293  0.00  0.00    +0.010 C 
ATOM     19  CG2 VAL A   6       2.516  -5.995  27.432  0.00  0.00    +0.009 C 
ATOM     20  CG1 VAL A   6       3.086  -7.250  29.506  0.00  0.00    +0.009 C 
ENDBRANCH  17  18
BRANCH  17  21
ATOM     21  C   VAL A   6       6.081  -5.870  28.734  0.00  0.00    +0.245 C 
ATOM     22  O   VAL A   6       6.995  -5.301  28.136  0.00  0.00    -0.299 OA
ENDBRANCH  17  21
ENDBRANCH  14  17
ENDBRANCH  11  13
ENDBRANCH   8  11
ENDBRANCH   6   7
BRANCH   6  23
ATOM     23  CB  SER A   4       6.963   2.116  28.651  0.00  0.00    +0.187 C 
BRANCH  23  24
ATOM     24  OG  SER A   4       7.499   3.131  27.800  0.00  0.00    -0.393 OA
ATOM     25  H   SER A   4       6.870   3.874  27.820  0.00  0.00    +0.209 HD
ENDBRANCH  23  24
ENDBRANCH   6  23
ENDBRANCH   4   6
ENDBRANCH   1   2
BRANCH   1  28
ATOM     26  C   PHE A   2       8.465  -2.030  23.579  0.00  0.00    +0.234 C 
ATOM     27  O   PHE A   2       9.399  -2.771  23.886  0.00  0.00    -0.274 OA
ATOM     28  N   GLN A   3       8.324  -0.769  24.111  0.00  0.00    -0.302 N 
ATOM     29  H   GLN A   3       7.584  -0.154  23.783  0.00  0.00    +0.150 HD
BRANCH  26  30
ATOM     30  CA  PHE A   2       7.327  -2.462  22.635  0.00  0.00    +0.163 C 
BRANCH  30  32
ATOM     31  C   THR A   1       6.370  -1.585  20.522  0.00  0.00    +0.233 C 
ATOM     32  N   PHE A   2       7.410  -1.663  21.418  0.00  0.00    -0.302 N 
ATOM     33  H   PHE A   2       8.139  -0.963  21.360  0.00  0.00    +0.150 HD
ATOM     34  O   THR A   1       5.334  -2.237  20.640  0.00  0.00    -0.274 OA
BRANCH  31  35
ATOM     35  CA  THR A   1       6.648  -0.656  19.327  0.00  0.00    +0.166 C 
BRANCH  35  36
ATOM     36  N   THR A   1       5.759  -1.047  18.201  0.00  0.00    -0.318 NA
ATOM     37  H1  THR A   1       4.801  -0.927  18.551  0.00  0.00    +0.119 HD
ATOM     38  H2  THR A   1       5.853  -2.055  18.062  0.00  0.00    +0.119 HD
ENDBRANCH  35  36
BRANCH  35  39
ATOM     39  CB  THR A   1       6.435   0.823  19.718  0.00  0.00    +0.137 C 
ATOM     40  CG2 THR A   1       5.185   1.396  19.058  0.00  0.00    +0.040 C 
BRANCH  39  41
ATOM     41  OG1 THR A   1       6.279   0.908  21.144  0.00  0.00    -0.390 OA
ATOM     42  HG1 THR A   1       6.957   1.527  21.470  0.00  0.00    +0.210 HD
ENDBRANCH  39  41
ENDBRANCH  35  39
ENDBRANCH  31  35
ENDBRANCH  30  32
BRANCH  30  43
ATOM     43  CB  PHE A   2       7.459  -3.963  22.339  0.00  0.00    +0.067 C 
BRANCH  43  44
ATOM     44  CG  PHE A   2       6.406  -4.785  23.044  0.00  0.00    -0.045 A 
ATOM     45  CD2 PHE A   2       5.241  -5.182  22.375  0.00  0.00    +0.004 A 
ATOM     46  CE2 PHE A   2       4.302  -5.993  23.013  0.00  0.00    +0.000 A 
ATOM     47  CZ  PHE A   2       4.518  -6.418  24.323  0.00  0.00    +0.000 A 
ATOM     48  CE1 PHE A   2       5.673  -6.030  24.998  0.00  0.00    +0.000 A 
ATOM     49  CD1 PHE A   2       6.611  -5.217  24.363  0.00  0.00    +0.004 A 
ENDBRANCH  43  44
ENDBRANCH  30  43
ENDBRANCH  26  30
ENDBRANCH   1  28
BRANCH   1  50
ATOM     50  CB  GLN A   3       9.595   1.280  24.620  0.00  0.00    +0.041 C 
BRANCH  50  51
ATOM     51  CG  GLN A   3      10.425   1.423  23.344  0.00  0.00    +0.098 C 
BRANCH  51  52
ATOM     52  CD  GLN A   3       9.584   1.405  22.086  0.00  0.00    +0.211 C 
ATOM     53  NE2 GLN A   3       9.000   2.582  21.732  0.00  0.00    -0.329 N 
ATOM     54 HE21 GLN A   3       8.427   2.581  20.898  0.00  0.00    +0.145 HD
ATOM     55 HE22 GLN A   3       9.014   3.414  22.303  0.00  0.00    +0.145 HD
ATOM     56  OE1 GLN A   3       9.472   0.412  21.376  0.00  0.00    -0.276 OA
ENDBRANCH  51  52
ENDBRANCH  50  51
ENDBRANCH   1  50
TORSDOF 22
ENDMDL
MODEL 10
REMARK VINA RESULT:      -6.5      2.153      3.724
REMARK  Name = TFQSAV-mmff94.pdb
REMARK  26 active torsions:
REMARK  status: ('A' for Active; 'I' for Inactive)
REMARK    1  A    between atoms: _1  and  _2
REMARK    2  A    between atoms: _2  and  _3
REMARK    3  A    between atoms: _2  and  _5
REMARK    4  A    between atoms: _5  and  _6
REMARK    5  A    between atoms: _5  and  _7
REMARK    6  A    between atoms: _15  and  _16
REMARK    7  A    between atoms: _16  and  _17
REMARK    8  A    between atoms: _16  and  _19
REMARK    9  A    between atoms: _19  and  _20
REMARK   10  A    between atoms: _35  and  _36
REMARK   11  A    between atoms: _36  and  _37
REMARK   12  A    between atoms: _36  and  _39
REMARK   13  A    between atoms: _39  and  _40
REMARK   14  A    between atoms: _40  and  _41
REMARK   15  A    between atoms: _52  and  _53
REMARK   16  A    between atoms: _53  and  _54
REMARK   17  A    between atoms: _53  and  _56
REMARK   18  A    between atoms: _56  and  _57
REMARK   19  A    between atoms: _63  and  _64
REMARK   20  A    between atoms: _64  and  _65
REMARK   21  A    between atoms: _64  and  _67
REMARK   22  A    between atoms: _73  and  _74
REMARK   23  A    between atoms: _74  and  _75
REMARK   24  A    between atoms: _74  and  _77
REMARK   25  A    between atoms: _77  and  _78
REMARK   26  A    between atoms: _77  and  _79
REMARK                            x       y       z     vdW  Elec       q    Type
REMARK                         _______ _______ _______ _____ _____    ______ ____
ROOT
ATOM      1  CA  GLN A   3       8.494   0.016  21.075  0.00  0.00    +0.159 C 
ENDROOT
BRANCH   1   2
ATOM      2  C   GLN A   3       8.013   1.149  22.002  0.00  0.00    +0.234 C 
ATOM      3  O   GLN A   3       7.229   0.946  22.930  0.00  0.00    -0.274 OA
ATOM      4  N   SER A   4       8.484   2.401  21.701  0.00  0.00    -0.301 N 
ATOM      5  H   SER A   4       9.091   2.564  20.899  0.00  0.00    +0.150 HD
BRANCH   4   6
ATOM      6  CA  SER A   4       7.996   3.602  22.386  0.00  0.00    +0.184 C 
BRANCH   6   7
ATOM      7  C   SER A   4       8.358   3.471  23.873  0.00  0.00    +0.236 C 
ATOM      8  N   ALA A   5       7.292   3.381  24.731  0.00  0.00    -0.303 N 
ATOM      9  H   ALA A   5       6.336   3.388  24.386  0.00  0.00    +0.149 HD
ATOM     10  O   SER A   4       9.529   3.471  24.258  0.00  0.00    -0.274 OA
BRANCH   8  11
ATOM     11  CA  ALA A   5       7.449   3.151  26.163  0.00  0.00    +0.156 C 
ATOM     12  CB  ALA A   5       6.435   3.941  26.980  0.00  0.00    +0.038 C 
BRANCH  11  13
ATOM     13  C   ALA A   5       7.258   1.644  26.400  0.00  0.00    +0.234 C 
ATOM     14  N   VAL A   6       6.007   1.276  26.827  0.00  0.00    -0.304 N 
ATOM     15  H   VAL A   6       5.266   1.970  26.898  0.00  0.00    +0.149 HD
ATOM     16  O   ALA A   5       8.165   0.833  26.202  0.00  0.00    -0.274 OA
BRANCH  14  17
ATOM     17  CA  VAL A   6       5.614  -0.117  27.035  0.00  0.00    +0.138 C 
BRANCH  17  18
ATOM     18  CB  VAL A   6       4.447  -0.263  28.036  0.00  0.00    +0.010 C 
ATOM     19  CG2 VAL A   6       3.178  -0.807  27.369  0.00  0.00    +0.009 C 
ATOM     20  CG1 VAL A   6       4.110   1.074  28.709  0.00  0.00    +0.009 C 
ENDBRANCH  17  18
BRANCH  17  21
ATOM     21  C   VAL A   6       5.220  -0.634  25.653  0.00  0.00    +0.245 C 
ATOM     22  O   VAL A   6       5.975  -1.280  24.926  0.00  0.00    -0.299 OA
ENDBRANCH  17  21
ENDBRANCH  14  17
ENDBRANCH  11  13
ENDBRANCH   8  11
ENDBRANCH   6   7
BRANCH   6  23
ATOM     23  CB  SER A   4       6.488   3.801  22.196  0.00  0.00    +0.187 C 
BRANCH  23  24
ATOM     24  OG  SER A   4       6.121   5.178  22.289  0.00  0.00    -0.393 OA
ATOM     25  H   SER A   4       6.171   5.418  23.231  0.00  0.00    +0.209 HD
ENDBRANCH  23  24
ENDBRANCH   6  23
ENDBRANCH   4   6
ENDBRANCH   1   2
BRANCH   1  28
ATOM     26  C   PHE A   2       8.775  -2.195  22.190  0.00  0.00    +0.234 C 
ATOM     27  O   PHE A   2       9.992  -2.050  22.299  0.00  0.00    -0.274 OA
ATOM     28  N   GLN A   3       7.967  -1.224  21.644  0.00  0.00    -0.302 N 
ATOM     29  H   GLN A   3       6.976  -1.403  21.501  0.00  0.00    +0.150 HD
BRANCH  26  30
ATOM     30  CA  PHE A   2       8.027  -3.434  22.718  0.00  0.00    +0.163 C 
BRANCH  30  32
ATOM     31  C   THR A   1       8.763  -4.115  24.986  0.00  0.00    +0.233 C 
ATOM     32  N   PHE A   2       7.963  -3.348  24.172  0.00  0.00    -0.302 N 
ATOM     33  H   PHE A   2       7.509  -2.539  24.578  0.00  0.00    +0.150 HD
ATOM     34  O   THR A   1       9.527  -4.977  24.554  0.00  0.00    -0.274 OA
BRANCH  31  35
ATOM     35  CA  THR A   1       8.566  -3.839  26.487  0.00  0.00    +0.166 C 
BRANCH  35  36
ATOM     36  N   THR A   1       8.263  -2.396  26.672  0.00  0.00    -0.318 NA
ATOM     37  H1  THR A   1       8.270  -1.989  25.729  0.00  0.00    +0.119 HD
ATOM     38  H2  THR A   1       9.063  -1.964  27.139  0.00  0.00    +0.119 HD
ENDBRANCH  35  36
BRANCH  35  39
ATOM     39  CB  THR A   1       7.441  -4.724  27.067  0.00  0.00    +0.137 C 
ATOM     40  CG2 THR A   1       6.135  -3.946  27.196  0.00  0.00    +0.040 C 
BRANCH  39  41
ATOM     41  OG1 THR A   1       7.225  -5.838  26.185  0.00  0.00    -0.390 OA
ATOM     42  HG1 THR A   1       8.078  -6.297  26.090  0.00  0.00    +0.210 HD
ENDBRANCH  39  41
ENDBRANCH  35  39
ENDBRANCH  31  35
ENDBRANCH  30  32
BRANCH  30  43
ATOM     43  CB  PHE A   2       6.626  -3.483  22.089  0.00  0.00    +0.067 C 
BRANCH  43  44
ATOM     44  CG  PHE A   2       5.675  -4.363  22.867  0.00  0.00    -0.045 A 
ATOM     45  CD2 PHE A   2       4.541  -3.820  23.485  0.00  0.00    +0.004 A 
ATOM     46  CE2 PHE A   2       3.636  -4.648  24.150  0.00  0.00    +0.000 A 
ATOM     47  CZ  PHE A   2       3.851  -6.024  24.200  0.00  0.00    +0.000 A 
ATOM     48  CE1 PHE A   2       4.975  -6.575  23.589  0.00  0.00    +0.000 A 
ATOM     49  CD1 PHE A   2       5.884  -5.749  22.927  0.00  0.00    +0.004 A 
ENDBRANCH  43  44
ENDBRANCH  30  43
ENDBRANCH  26  30
ENDBRANCH   1  28
BRANCH   1  50
ATOM     50  CB  GLN A   3       7.979   0.211  19.641  0.00  0.00    +0.041 C 
BRANCH  50  51
ATOM     51  CG  GLN A   3       6.456   0.276  19.538  0.00  0.00    +0.098 C 
BRANCH  51  52
ATOM     52  CD  GLN A   3       5.900  -0.594  18.432  0.00  0.00    +0.211 C 
ATOM     53  NE2 GLN A   3       5.536  -1.858  18.781  0.00  0.00    -0.329 N 
ATOM     54 HE21 GLN A   3       5.172  -2.453  18.048  0.00  0.00    +0.145 HD
ATOM     55 HE22 GLN A   3       5.707  -2.265  19.688  0.00  0.00    +0.145 HD
ATOM     56  OE1 GLN A   3       5.721  -0.184  17.290  0.00  0.00    -0.276 OA
ENDBRANCH  51  52
ENDBRANCH  50  51
ENDBRANCH   1  50
TORSDOF 22
ENDMDL
MODEL 11
REMARK VINA RESULT:      -6.5      2.580      7.946
REMARK  Name = TFQSAV-mmff94.pdb
REMARK  26 active torsions:
REMARK  status: ('A' for Active; 'I' for Inactive)
REMARK    1  A    between atoms: _1  and  _2
REMARK    2  A    between atoms: _2  and  _3
REMARK    3  A    between atoms: _2  and  _5
REMARK    4  A    between atoms: _5  and  _6
REMARK    5  A    between atoms: _5  and  _7
REMARK    6  A    between atoms: _15  and  _16
REMARK    7  A    between atoms: _16  and  _17
REMARK    8  A    between atoms: _16  and  _19
REMARK    9  A    between atoms: _19  and  _20
REMARK   10  A    between atoms: _35  and  _36
REMARK   11  A    between atoms: _36  and  _37
REMARK   12  A    between atoms: _36  and  _39
REMARK   13  A    between atoms: _39  and  _40
REMARK   14  A    between atoms: _40  and  _41
REMARK   15  A    between atoms: _52  and  _53
REMARK   16  A    between atoms: _53  and  _54
REMARK   17  A    between atoms: _53  and  _56
REMARK   18  A    between atoms: _56  and  _57
REMARK   19  A    between atoms: _63  and  _64
REMARK   20  A    between atoms: _64  and  _65
REMARK   21  A    between atoms: _64  and  _67
REMARK   22  A    between atoms: _73  and  _74
REMARK   23  A    between atoms: _74  and  _75
REMARK   24  A    between atoms: _74  and  _77
REMARK   25  A    between atoms: _77  and  _78
REMARK   26  A    between atoms: _77  and  _79
REMARK                            x       y       z     vdW  Elec       q    Type
REMARK                         _______ _______ _______ _____ _____    ______ ____
ROOT
ATOM      1  CA  GLN A   3       8.225  -3.851  24.840  0.00  0.00    +0.159 C 
ENDROOT
BRANCH   1   2
ATOM      2  C   GLN A   3       7.252  -4.480  23.823  0.00  0.00    +0.234 C 
ATOM      3  O   GLN A   3       7.543  -4.605  22.633  0.00  0.00    -0.274 OA
ATOM      4  N   SER A   4       6.031  -4.853  24.323  0.00  0.00    -0.301 N 
ATOM      5  H   SER A   4       5.784  -4.697  25.299  0.00  0.00    +0.150 HD
BRANCH   4   6
ATOM      6  CA  SER A   4       4.944  -5.318  23.457  0.00  0.00    +0.184 C 
BRANCH   6   7
ATOM      7  C   SER A   4       3.619  -4.855  24.081  0.00  0.00    +0.236 C 
ATOM      8  N   ALA A   5       3.702  -4.416  25.377  0.00  0.00    -0.303 N 
ATOM      9  H   ALA A   5       4.591  -4.392  25.870  0.00  0.00    +0.149 HD
ATOM     10  O   SER A   4       2.557  -4.903  23.456  0.00  0.00    -0.274 OA
BRANCH   8  11
ATOM     11  CA  ALA A   5       2.565  -3.848  26.091  0.00  0.00    +0.156 C 
ATOM     12  CB  ALA A   5       2.304  -4.565  27.410  0.00  0.00    +0.038 C 
BRANCH  11  13
ATOM     13  C   ALA A   5       2.892  -2.368  26.353  0.00  0.00    +0.234 C 
ATOM     14  N   VAL A   6       4.224  -2.046  26.285  0.00  0.00    -0.304 N 
ATOM     15  H   VAL A   6       4.906  -2.748  26.007  0.00  0.00    +0.149 HD
ATOM     16  O   ALA A   5       2.012  -1.538  26.589  0.00  0.00    -0.274 OA
BRANCH  14  17
ATOM     17  CA  VAL A   6       4.722  -0.679  26.432  0.00  0.00    +0.138 C 
BRANCH  17  18
ATOM     18  CB  VAL A   6       5.432  -0.445  27.782  0.00  0.00    +0.010 C 
ATOM     19  CG2 VAL A   6       4.538   0.294  28.785  0.00  0.00    +0.009 C 
ATOM     20  CG1 VAL A   6       6.731   0.352  27.607  0.00  0.00    +0.009 C 
ENDBRANCH  17  18
BRANCH  17  21
ATOM     21  C   VAL A   6       5.683  -0.473  25.263  0.00  0.00    +0.245 C 
ATOM     22  O   VAL A   6       5.766  -1.243  24.306  0.00  0.00    -0.299 OA
ENDBRANCH  17  21
ENDBRANCH  14  17
ENDBRANCH  11  13
ENDBRANCH   8  11
ENDBRANCH   6   7
BRANCH   6  23
ATOM     23  CB  SER A   4       4.969  -6.840  23.267  0.00  0.00    +0.187 C 
BRANCH  23  24
ATOM     24  OG  SER A   4       4.168  -7.507  24.243  0.00  0.00    -0.393 OA
ATOM     25  H   SER A   4       4.467  -8.434  24.263  0.00  0.00    +0.209 HD
ENDBRANCH  23  24
ENDBRANCH   6  23
ENDBRANCH   4   6
ENDBRANCH   1   2
BRANCH   1  28
ATOM     26  C   PHE A   2       9.569  -2.016  23.826  0.00  0.00    +0.234 C 
ATOM     27  O   PHE A   2      10.499  -2.772  23.548  0.00  0.00    -0.274 OA
ATOM     28  N   GLN A   3       8.410  -2.464  24.417  0.00  0.00    -0.302 N 
ATOM     29  H   GLN A   3       7.691  -1.803  24.700  0.00  0.00    +0.150 HD
BRANCH  26  30
ATOM     30  CA  PHE A   2       9.574  -0.516  23.473  0.00  0.00    +0.163 C 
BRANCH  30  32
ATOM     31  C   THR A   1       8.202  -0.329  21.415  0.00  0.00    +0.233 C 
ATOM     32  N   PHE A   2       8.330  -0.202  22.779  0.00  0.00    -0.302 N 
ATOM     33  H   PHE A   2       7.484  -0.136  23.331  0.00  0.00    +0.150 HD
ATOM     34  O   THR A   1       9.138  -0.638  20.680  0.00  0.00    -0.274 OA
BRANCH  31  35
ATOM     35  CA  THR A   1       6.796   0.012  20.890  0.00  0.00    +0.166 C 
BRANCH  35  36
ATOM     36  N   THR A   1       6.499   1.434  21.208  0.00  0.00    -0.318 NA
ATOM     37  H1  THR A   1       6.137   1.433  22.168  0.00  0.00    +0.119 HD
ATOM     38  H2  THR A   1       5.703   1.724  20.637  0.00  0.00    +0.119 HD
ENDBRANCH  35  36
BRANCH  35  39
ATOM     39  CB  THR A   1       6.695  -0.253  19.373  0.00  0.00    +0.137 C 
ATOM     40  CG2 THR A   1       5.351   0.208  18.817  0.00  0.00    +0.040 C 
BRANCH  39  41
ATOM     41  OG1 THR A   1       7.740   0.473  18.704  0.00  0.00    -0.390 OA
ATOM     42  HG1 THR A   1       7.952   1.244  19.259  0.00  0.00    +0.210 HD
ENDBRANCH  39  41
ENDBRANCH  35  39
ENDBRANCH  31  35
ENDBRANCH  30  32
BRANCH  30  43
ATOM     43  CB  PHE A   2       9.727   0.305  24.762  0.00  0.00    +0.067 C 
BRANCH  43  44
ATOM     44  CG  PHE A   2       9.681   1.794  24.507  0.00  0.00    -0.045 A 
ATOM     45  CD2 PHE A   2      10.674   2.420  23.743  0.00  0.00    +0.004 A 
ATOM     46  CE2 PHE A   2      10.592   3.784  23.460  0.00  0.00    +0.000 A 
ATOM     47  CZ  PHE A   2       9.516   4.534  23.933  0.00  0.00    +0.000 A 
ATOM     48  CE1 PHE A   2       8.522   3.921  24.693  0.00  0.00    +0.000 A 
ATOM     49  CD1 PHE A   2       8.604   2.559  24.980  0.00  0.00    +0.004 A 
ENDBRANCH  43  44
ENDBRANCH  30  43
ENDBRANCH  26  30
ENDBRANCH   1  28
BRANCH   1  50
ATOM     50  CB  GLN A   3       7.654  -3.907  26.265  0.00  0.00    +0.041 C 
BRANCH  50  51
ATOM     51  CG  GLN A   3       7.744  -5.289  26.911  0.00  0.00    +0.098 C 
BRANCH  51  52
ATOM     52  CD  GLN A   3       6.406  -5.805  27.394  0.00  0.00    +0.211 C 
ATOM     53  NE2 GLN A   3       5.974  -5.332  28.594  0.00  0.00    -0.329 N 
ATOM     54 HE21 GLN A   3       5.084  -5.677  28.933  0.00  0.00    +0.145 HD
ATOM     55 HE22 GLN A   3       6.528  -4.753  29.207  0.00  0.00    +0.145 HD
ATOM     56  OE1 GLN A   3       5.705  -6.559  26.729  0.00  0.00    -0.276 OA
ENDBRANCH  51  52
ENDBRANCH  50  51
ENDBRANCH   1  50
TORSDOF 22
ENDMDL
MODEL 12
REMARK VINA RESULT:      -6.5      3.077      8.369
REMARK  Name = TFQSAV-mmff94.pdb
REMARK  26 active torsions:
REMARK  status: ('A' for Active; 'I' for Inactive)
REMARK    1  A    between atoms: _1  and  _2
REMARK    2  A    between atoms: _2  and  _3
REMARK    3  A    between atoms: _2  and  _5
REMARK    4  A    between atoms: _5  and  _6
REMARK    5  A    between atoms: _5  and  _7
REMARK    6  A    between atoms: _15  and  _16
REMARK    7  A    between atoms: _16  and  _17
REMARK    8  A    between atoms: _16  and  _19
REMARK    9  A    between atoms: _19  and  _20
REMARK   10  A    between atoms: _35  and  _36
REMARK   11  A    between atoms: _36  and  _37
REMARK   12  A    between atoms: _36  and  _39
REMARK   13  A    between atoms: _39  and  _40
REMARK   14  A    between atoms: _40  and  _41
REMARK   15  A    between atoms: _52  and  _53
REMARK   16  A    between atoms: _53  and  _54
REMARK   17  A    between atoms: _53  and  _56
REMARK   18  A    between atoms: _56  and  _57
REMARK   19  A    between atoms: _63  and  _64
REMARK   20  A    between atoms: _64  and  _65
REMARK   21  A    between atoms: _64  and  _67
REMARK   22  A    between atoms: _73  and  _74
REMARK   23  A    between atoms: _74  and  _75
REMARK   24  A    between atoms: _74  and  _77
REMARK   25  A    between atoms: _77  and  _78
REMARK   26  A    between atoms: _77  and  _79
REMARK                            x       y       z     vdW  Elec       q    Type
REMARK                         _______ _______ _______ _____ _____    ______ ____
ROOT
ATOM      1  CA  GLN A   3       6.131  -5.026  23.428  0.00  0.00    +0.159 C 
ENDROOT
BRANCH   1   2
ATOM      2  C   GLN A   3       4.688  -4.861  23.943  0.00  0.00    +0.234 C 
ATOM      3  O   GLN A   3       4.222  -3.760  24.240  0.00  0.00    -0.274 OA
ATOM      4  N   SER A   4       3.973  -6.022  24.087  0.00  0.00    -0.301 N 
ATOM      5  H   SER A   4       4.387  -6.931  23.888  0.00  0.00    +0.150 HD
BRANCH   4   6
ATOM      6  CA  SER A   4       2.648  -6.048  24.713  0.00  0.00    +0.184 C 
BRANCH   6   7
ATOM      7  C   SER A   4       2.850  -6.125  26.234  0.00  0.00    +0.236 C 
ATOM      8  N   ALA A   5       4.036  -5.614  26.695  0.00  0.00    -0.303 N 
ATOM      9  H   ALA A   5       4.716  -5.204  26.059  0.00  0.00    +0.149 HD
ATOM     10  O   SER A   4       2.007  -6.634  26.975  0.00  0.00    -0.274 OA
BRANCH   8  11
ATOM     11  CA  ALA A   5       4.352  -5.513  28.114  0.00  0.00    +0.156 C 
ATOM     12  CB  ALA A   5       5.676  -6.187  28.453  0.00  0.00    +0.038 C 
BRANCH  11  13
ATOM     13  C   ALA A   5       4.421  -4.015  28.454  0.00  0.00    +0.234 C 
ATOM     14  N   VAL A   6       4.560  -3.179  27.374  0.00  0.00    -0.304 N 
ATOM     15  H   VAL A   6       4.541  -3.557  26.430  0.00  0.00    +0.149 HD
ATOM     16  O   ALA A   5       4.340  -3.605  29.614  0.00  0.00    -0.274 OA
BRANCH  14  17
ATOM     17  CA  VAL A   6       4.571  -1.722  27.491  0.00  0.00    +0.138 C 
BRANCH  17  18
ATOM     18  CB  VAL A   6       5.592  -1.055  26.544  0.00  0.00    +0.010 C 
ATOM     19  CG2 VAL A   6       7.034  -1.460  26.873  0.00  0.00    +0.009 C 
ATOM     20  CG1 VAL A   6       5.492   0.475  26.592  0.00  0.00    +0.009 C 
ENDBRANCH  17  18
BRANCH  17  21
ATOM     21  C   VAL A   6       3.146  -1.282  27.160  0.00  0.00    +0.245 C 
ATOM     22  O   VAL A   6       2.406  -1.892  26.388  0.00  0.00    -0.299 OA
ENDBRANCH  17  21
ENDBRANCH  14  17
ENDBRANCH  11  13
ENDBRANCH   8  11
ENDBRANCH   6   7
BRANCH   6  23
ATOM     23  CB  SER A   4       1.794  -7.216  24.205  0.00  0.00    +0.187 C 
BRANCH  23  24
ATOM     24  OG  SER A   4       2.598  -8.337  23.838  0.00  0.00    -0.393 OA
ATOM     25  H   SER A   4       2.812  -8.231  22.894  0.00  0.00    +0.209 HD
ENDBRANCH  23  24
ENDBRANCH   6  23
ENDBRANCH   4   6
ENDBRANCH   1   2
BRANCH   1  28
ATOM     26  C   PHE A   2       6.455  -3.057  21.938  0.00  0.00    +0.234 C 
ATOM     27  O   PHE A   2       5.820  -3.574  21.020  0.00  0.00    -0.274 OA
ATOM     28  N   GLN A   3       6.621  -3.675  23.155  0.00  0.00    -0.302 N 
ATOM     29  H   GLN A   3       7.212  -3.254  23.868  0.00  0.00    +0.150 HD
BRANCH  26  30
ATOM     30  CA  PHE A   2       7.061  -1.643  21.846  0.00  0.00    +0.163 C 
BRANCH  30  32
ATOM     31  C   THR A   1       7.185  -0.205  19.829  0.00  0.00    +0.233 C 
ATOM     32  N   PHE A   2       6.447  -0.951  20.718  0.00  0.00    -0.302 N 
ATOM     33  H   PHE A   2       5.514  -1.230  20.443  0.00  0.00    +0.150 HD
ATOM     34  O   THR A   1       8.391  -0.004  19.962  0.00  0.00    -0.274 OA
BRANCH  31  35
ATOM     35  CA  THR A   1       6.350   0.405  18.689  0.00  0.00    +0.166 C 
BRANCH  35  36
ATOM     36  N   THR A   1       5.833  -0.695  17.834  0.00  0.00    -0.318 NA
ATOM     37  H1  THR A   1       5.246  -1.270  18.450  0.00  0.00    +0.119 HD
ATOM     38  H2  THR A   1       6.619  -1.303  17.595  0.00  0.00    +0.119 HD
ENDBRANCH  35  36
BRANCH  35  39
ATOM     39  CB  THR A   1       5.197   1.265  19.250  0.00  0.00    +0.137 C 
ATOM     40  CG2 THR A   1       5.631   2.029  20.497  0.00  0.00    +0.040 C 
BRANCH  39  41
ATOM     41  OG1 THR A   1       4.796   2.215  18.249  0.00  0.00    -0.390 OA
ATOM     42  HG1 THR A   1       5.492   2.222  17.567  0.00  0.00    +0.210 HD
ENDBRANCH  39  41
ENDBRANCH  35  39
ENDBRANCH  31  35
ENDBRANCH  30  32
BRANCH  30  43
ATOM     43  CB  PHE A   2       6.814  -0.902  23.169  0.00  0.00    +0.067 C 
BRANCH  43  44
ATOM     44  CG  PHE A   2       7.979  -0.025  23.566  0.00  0.00    -0.045 A 
ATOM     45  CD2 PHE A   2       7.792   1.338  23.828  0.00  0.00    +0.004 A 
ATOM     46  CE2 PHE A   2       8.861   2.128  24.254  0.00  0.00    +0.000 A 
ATOM     47  CZ  PHE A   2      10.124   1.564  24.425  0.00  0.00    +0.000 A 
ATOM     48  CE1 PHE A   2      10.321   0.209  24.167  0.00  0.00    +0.000 A 
ATOM     49  CD1 PHE A   2       9.255  -0.581  23.738  0.00  0.00    +0.004 A 
ENDBRANCH  43  44
ENDBRANCH  30  43
ENDBRANCH  26  30
ENDBRANCH   1  28
BRANCH   1  50
ATOM     50  CB  GLN A   3       7.020  -5.720  24.472  0.00  0.00    +0.041 C 
BRANCH  50  51
ATOM     51  CG  GLN A   3       7.746  -4.750  25.403  0.00  0.00    +0.098 C 
BRANCH  51  52
ATOM     52  CD  GLN A   3       9.229  -4.653  25.116  0.00  0.00    +0.211 C 
ATOM     53  NE2 GLN A   3      10.030  -5.543  25.762  0.00  0.00    -0.329 N 
ATOM     54 HE21 GLN A   3      11.025  -5.482  25.585  0.00  0.00    +0.145 HD
ATOM     55 HE22 GLN A   3       9.708  -6.177  26.478  0.00  0.00    +0.145 HD
ATOM     56  OE1 GLN A   3       9.698  -3.865  24.302  0.00  0.00    -0.276 OA
ENDBRANCH  51  52
ENDBRANCH  50  51
ENDBRANCH   1  50
TORSDOF 22
ENDMDL
MODEL 13
REMARK VINA RESULT:      -6.5      1.820      5.417
REMARK  Name = TFQSAV-mmff94.pdb
REMARK  26 active torsions:
REMARK  status: ('A' for Active; 'I' for Inactive)
REMARK    1  A    between atoms: _1  and  _2
REMARK    2  A    between atoms: _2  and  _3
REMARK    3  A    between atoms: _2  and  _5
REMARK    4  A    between atoms: _5  and  _6
REMARK    5  A    between atoms: _5  and  _7
REMARK    6  A    between atoms: _15  and  _16
REMARK    7  A    between atoms: _16  and  _17
REMARK    8  A    between atoms: _16  and  _19
REMARK    9  A    between atoms: _19  and  _20
REMARK   10  A    between atoms: _35  and  _36
REMARK   11  A    between atoms: _36  and  _37
REMARK   12  A    between atoms: _36  and  _39
REMARK   13  A    between atoms: _39  and  _40
REMARK   14  A    between atoms: _40  and  _41
REMARK   15  A    between atoms: _52  and  _53
REMARK   16  A    between atoms: _53  and  _54
REMARK   17  A    between atoms: _53  and  _56
REMARK   18  A    between atoms: _56  and  _57
REMARK   19  A    between atoms: _63  and  _64
REMARK   20  A    between atoms: _64  and  _65
REMARK   21  A    between atoms: _64  and  _67
REMARK   22  A    between atoms: _73  and  _74
REMARK   23  A    between atoms: _74  and  _75
REMARK   24  A    between atoms: _74  and  _77
REMARK   25  A    between atoms: _77  and  _78
REMARK   26  A    between atoms: _77  and  _79
REMARK                            x       y       z     vdW  Elec       q    Type
REMARK                         _______ _______ _______ _____ _____    ______ ____
ROOT
ATOM      1  CA  GLN A   3       7.626  -1.686  21.742  0.00  0.00    +0.159 C 
ENDROOT
BRANCH   1   2
ATOM      2  C   GLN A   3       7.338  -0.561  20.729  0.00  0.00    +0.234 C 
ATOM      3  O   GLN A   3       8.023  -0.402  19.717  0.00  0.00    -0.274 OA
ATOM      4  N   SER A   4       6.298   0.273  21.049  0.00  0.00    -0.301 N 
ATOM      5  H   SER A   4       5.773   0.162  21.915  0.00  0.00    +0.150 HD
BRANCH   4   6
ATOM      6  CA  SER A   4       6.001   1.480  20.273  0.00  0.00    +0.184 C 
BRANCH   6   7
ATOM      7  C   SER A   4       5.715   2.617  21.266  0.00  0.00    +0.236 C 
ATOM      8  N   ALA A   5       4.393   2.948  21.416  0.00  0.00    -0.303 N 
ATOM      9  H   ALA A   5       3.665   2.454  20.906  0.00  0.00    +0.149 HD
ATOM     10  O   SER A   4       6.623   3.198  21.864  0.00  0.00    -0.274 OA
BRANCH   8  11
ATOM     11  CA  ALA A   5       3.932   3.932  22.388  0.00  0.00    +0.156 C 
ATOM     12  CB  ALA A   5       2.703   4.685  21.896  0.00  0.00    +0.038 C 
BRANCH  11  13
ATOM     13  C   ALA A   5       3.599   3.166  23.679  0.00  0.00    +0.234 C 
ATOM     14  N   VAL A   6       4.632   3.063  24.577  0.00  0.00    -0.304 N 
ATOM     15  H   VAL A   6       5.515   3.535  24.397  0.00  0.00    +0.149 HD
ATOM     16  O   ALA A   5       2.478   2.697  23.889  0.00  0.00    -0.274 OA
BRANCH  14  17
ATOM     17  CA  VAL A   6       4.486   2.436  25.890  0.00  0.00    +0.138 C 
BRANCH  17  18
ATOM     18  CB  VAL A   6       5.218   1.080  25.987  0.00  0.00    +0.010 C 
ATOM     19  CG2 VAL A   6       5.560   0.508  24.607  0.00  0.00    +0.009 C 
ATOM     20  CG1 VAL A   6       4.385   0.042  26.752  0.00  0.00    +0.009 C 
ENDBRANCH  17  18
BRANCH  17  21
ATOM     21  C   VAL A   6       5.062   3.443  26.883  0.00  0.00    +0.245 C 
ATOM     22  O   VAL A   6       6.235   3.436  27.257  0.00  0.00    -0.299 OA
ENDBRANCH  17  21
ENDBRANCH  14  17
ENDBRANCH  11  13
ENDBRANCH   8  11
ENDBRANCH   6   7
BRANCH   6  23
ATOM     23  CB  SER A   4       4.823   1.272  19.312  0.00  0.00    +0.187 C 
BRANCH  23  24
ATOM     24  OG  SER A   4       5.181   0.434  18.212  0.00  0.00    -0.393 OA
ATOM     25  H   SER A   4       4.813  -0.447  18.401  0.00  0.00    +0.209 HD
ENDBRANCH  23  24
ENDBRANCH   6  23
ENDBRANCH   4   6
ENDBRANCH   1   2
BRANCH   1  28
ATOM     26  C   PHE A   2       9.024  -1.511  23.797  0.00  0.00    +0.234 C 
ATOM     27  O   PHE A   2       9.689  -2.503  23.499  0.00  0.00    -0.274 OA
ATOM     28  N   GLN A   3       8.030  -1.022  22.981  0.00  0.00    -0.302 N 
ATOM     29  H   GLN A   3       7.450  -0.244  23.288  0.00  0.00    +0.150 HD
BRANCH  26  30
ATOM     30  CA  PHE A   2       9.285  -0.675  25.065  0.00  0.00    +0.163 C 
BRANCH  30  32
ATOM     31  C   THR A   1      10.292   1.460  24.305  0.00  0.00    +0.233 C 
ATOM     32  N   PHE A   2       9.195   0.737  24.712  0.00  0.00    -0.302 N 
ATOM     33  H   PHE A   2       8.278   1.120  24.523  0.00  0.00    +0.150 HD
ATOM     34  O   THR A   1      11.430   0.995  24.283  0.00  0.00    -0.274 OA
BRANCH  31  35
ATOM     35  CA  THR A   1       9.972   2.921  23.941  0.00  0.00    +0.166 C 
BRANCH  35  36
ATOM     36  N   THR A   1       9.522   2.972  22.524  0.00  0.00    -0.318 NA
ATOM     37  H1  THR A   1      10.090   3.703  22.081  0.00  0.00    +0.119 HD
ATOM     38  H2  THR A   1       8.571   3.346  22.510  0.00  0.00    +0.119 HD
ENDBRANCH  35  36
BRANCH  35  39
ATOM     39  CB  THR A   1       8.899   3.502  24.887  0.00  0.00    +0.137 C 
ATOM     40  CG2 THR A   1       8.952   5.026  24.915  0.00  0.00    +0.040 C 
BRANCH  39  41
ATOM     41  OG1 THR A   1       7.601   3.098  24.422  0.00  0.00    -0.390 OA
ATOM     42  HG1 THR A   1       7.685   2.906  23.471  0.00  0.00    +0.210 HD
ENDBRANCH  39  41
ENDBRANCH  35  39
ENDBRANCH  31  35
ENDBRANCH  30  32
BRANCH  30  43
ATOM     43  CB  PHE A   2       8.259  -1.058  26.141  0.00  0.00    +0.067 C 
BRANCH  43  44
ATOM     44  CG  PHE A   2       7.915  -2.530  26.113  0.00  0.00    -0.045 A 
ATOM     45  CD2 PHE A   2       8.844  -3.490  26.535  0.00  0.00    +0.004 A 
ATOM     46  CE2 PHE A   2       8.498  -4.841  26.564  0.00  0.00    +0.000 A 
ATOM     47  CZ  PHE A   2       7.221  -5.246  26.177  0.00  0.00    +0.000 A 
ATOM     48  CE1 PHE A   2       6.290  -4.300  25.757  0.00  0.00    +0.000 A 
ATOM     49  CD1 PHE A   2       6.635  -2.949  25.723  0.00  0.00    +0.004 A 
ENDBRANCH  43  44
ENDBRANCH  30  43
ENDBRANCH  26  30
ENDBRANCH   1  28
BRANCH   1  50
ATOM     50  CB  GLN A   3       6.382  -2.555  21.979  0.00  0.00    +0.041 C 
BRANCH  50  51
ATOM     51  CG  GLN A   3       6.677  -4.054  22.026  0.00  0.00    +0.098 C 
BRANCH  51  52
ATOM     52  CD  GLN A   3       5.451  -4.889  22.323  0.00  0.00    +0.211 C 
ATOM     53  NE2 GLN A   3       5.632  -6.237  22.357  0.00  0.00    -0.329 N 
ATOM     54 HE21 GLN A   3       4.816  -6.808  22.545  0.00  0.00    +0.145 HD
ATOM     55 HE22 GLN A   3       6.491  -6.699  22.102  0.00  0.00    +0.145 HD
ATOM     56  OE1 GLN A   3       4.359  -4.397  22.582  0.00  0.00    -0.276 OA
ENDBRANCH  51  52
ENDBRANCH  50  51
ENDBRANCH   1  50
TORSDOF 22
ENDMDL
MODEL 14
REMARK VINA RESULT:      -6.4      2.945      7.214
REMARK  Name = TFQSAV-mmff94.pdb
REMARK  26 active torsions:
REMARK  status: ('A' for Active; 'I' for Inactive)
REMARK    1  A    between atoms: _1  and  _2
REMARK    2  A    between atoms: _2  and  _3
REMARK    3  A    between atoms: _2  and  _5
REMARK    4  A    between atoms: _5  and  _6
REMARK    5  A    between atoms: _5  and  _7
REMARK    6  A    between atoms: _15  and  _16
REMARK    7  A    between atoms: _16  and  _17
REMARK    8  A    between atoms: _16  and  _19
REMARK    9  A    between atoms: _19  and  _20
REMARK   10  A    between atoms: _35  and  _36
REMARK   11  A    between atoms: _36  and  _37
REMARK   12  A    between atoms: _36  and  _39
REMARK   13  A    between atoms: _39  and  _40
REMARK   14  A    between atoms: _40  and  _41
REMARK   15  A    between atoms: _52  and  _53
REMARK   16  A    between atoms: _53  and  _54
REMARK   17  A    between atoms: _53  and  _56
REMARK   18  A    between atoms: _56  and  _57
REMARK   19  A    between atoms: _63  and  _64
REMARK   20  A    between atoms: _64  and  _65
REMARK   21  A    between atoms: _64  and  _67
REMARK   22  A    between atoms: _73  and  _74
REMARK   23  A    between atoms: _74  and  _75
REMARK   24  A    between atoms: _74  and  _77
REMARK   25  A    between atoms: _77  and  _78
REMARK   26  A    between atoms: _77  and  _79
REMARK                            x       y       z     vdW  Elec       q    Type
REMARK                         _______ _______ _______ _____ _____    ______ ____
ROOT
ATOM      1  CA  GLN A   3       6.174  -5.018  23.054  0.00  0.00    +0.159 C 
ENDROOT
BRANCH   1   2
ATOM      2  C   GLN A   3       5.067  -4.934  24.123  0.00  0.00    +0.234 C 
ATOM      3  O   GLN A   3       3.898  -5.232  23.877  0.00  0.00    -0.274 OA
ATOM      4  N   SER A   4       5.463  -4.470  25.351  0.00  0.00    -0.301 N 
ATOM      5  H   SER A   4       6.423  -4.177  25.527  0.00  0.00    +0.150 HD
BRANCH   4   6
ATOM      6  CA  SER A   4       4.503  -4.183  26.422  0.00  0.00    +0.184 C 
BRANCH   6   7
ATOM      7  C   SER A   4       4.099  -2.706  26.305  0.00  0.00    +0.236 C 
ATOM      8  N   ALA A   5       4.446  -1.916  27.370  0.00  0.00    -0.303 N 
ATOM      9  H   ALA A   5       4.949  -2.298  28.168  0.00  0.00    +0.149 HD
ATOM     10  O   SER A   4       3.485  -2.277  25.325  0.00  0.00    -0.274 OA
BRANCH   8  11
ATOM     11  CA  ALA A   5       4.232  -0.474  27.386  0.00  0.00    +0.156 C 
ATOM     12  CB  ALA A   5       3.513  -0.019  28.650  0.00  0.00    +0.038 C 
BRANCH  11  13
ATOM     13  C   ALA A   5       5.618   0.188  27.302  0.00  0.00    +0.234 C 
ATOM     14  N   VAL A   6       5.611   1.506  26.921  0.00  0.00    -0.304 N 
ATOM     15  H   VAL A   6       4.728   1.994  26.786  0.00  0.00    +0.149 HD
ATOM     16  O   ALA A   5       6.651  -0.427  27.574  0.00  0.00    -0.274 OA
BRANCH  14  17
ATOM     17  CA  VAL A   6       6.822   2.323  26.856  0.00  0.00    +0.138 C 
BRANCH  17  18
ATOM     18  CB  VAL A   6       6.844   3.257  25.626  0.00  0.00    +0.010 C 
ATOM     19  CG2 VAL A   6       6.125   2.642  24.420  0.00  0.00    +0.009 C 
ATOM     20  CG1 VAL A   6       8.279   3.609  25.211  0.00  0.00    +0.009 C 
ENDBRANCH  17  18
BRANCH  17  21
ATOM     21  C   VAL A   6       6.837   3.125  28.155  0.00  0.00    +0.245 C 
ATOM     22  O   VAL A   6       7.481   2.795  29.152  0.00  0.00    -0.299 OA
ENDBRANCH  17  21
ENDBRANCH  14  17
ENDBRANCH  11  13
ENDBRANCH   8  11
ENDBRANCH   6   7
BRANCH   6  23
ATOM     23  CB  SER A   4       5.078  -4.495  27.809  0.00  0.00    +0.187 C 
BRANCH  23  24
ATOM     24  OG  SER A   4       6.485  -4.257  27.863  0.00  0.00    -0.393 OA
ATOM     25  H   SER A   4       6.728  -4.234  28.806  0.00  0.00    +0.209 HD
ENDBRANCH  23  24
ENDBRANCH   6  23
ENDBRANCH   4   6
ENDBRANCH   1   2
BRANCH   1  28
ATOM     26  C   PHE A   2       6.382  -2.895  21.766  0.00  0.00    +0.234 C 
ATOM     27  O   PHE A   2       5.628  -3.292  20.879  0.00  0.00    -0.274 OA
ATOM     28  N   GLN A   3       6.670  -3.653  22.878  0.00  0.00    -0.302 N 
ATOM     29  H   GLN A   3       7.353  -3.327  23.557  0.00  0.00    +0.150 HD
BRANCH  26  30
ATOM     30  CA  PHE A   2       7.016  -1.491  21.762  0.00  0.00    +0.163 C 
BRANCH  30  32
ATOM     31  C   THR A   1       7.033  -0.104  19.706  0.00  0.00    +0.233 C 
ATOM     32  N   PHE A   2       6.347  -0.686  20.746  0.00  0.00    -0.302 N 
ATOM     33  H   PHE A   2       5.341  -0.768  20.665  0.00  0.00    +0.150 HD
ATOM     34  O   THR A   1       8.257  -0.154  19.600  0.00  0.00    -0.274 OA
BRANCH  31  35
ATOM     35  CA  THR A   1       6.133   0.666  18.723  0.00  0.00    +0.166 C 
BRANCH  35  36
ATOM     36  N   THR A   1       5.584  -0.292  17.728  0.00  0.00    -0.318 NA
ATOM     37  H1  THR A   1       4.853   0.222  17.223  0.00  0.00    +0.119 HD
ATOM     38  H2  THR A   1       5.076  -1.019  18.238  0.00  0.00    +0.119 HD
ENDBRANCH  35  36
BRANCH  35  39
ATOM     39  CB  THR A   1       5.001   1.400  19.473  0.00  0.00    +0.137 C 
ATOM     40  CG2 THR A   1       5.547   2.216  20.641  0.00  0.00    +0.040 C 
BRANCH  39  41
ATOM     41  OG1 THR A   1       4.342   2.294  18.560  0.00  0.00    -0.390 OA
ATOM     42  HG1 THR A   1       4.082   3.082  19.069  0.00  0.00    +0.210 HD
ENDBRANCH  39  41
ENDBRANCH  35  39
ENDBRANCH  31  35
ENDBRANCH  30  32
BRANCH  30  43
ATOM     43  CB  PHE A   2       6.876  -0.870  23.160  0.00  0.00    +0.067 C 
BRANCH  43  44
ATOM     44  CG  PHE A   2       8.169  -0.264  23.655  0.00  0.00    -0.045 A 
ATOM     45  CD2 PHE A   2       8.708  -0.641  24.892  0.00  0.00    +0.004 A 
ATOM     46  CE2 PHE A   2       9.934  -0.123  25.314  0.00  0.00    +0.000 A 
ATOM     47  CZ  PHE A   2      10.634   0.770  24.505  0.00  0.00    +0.000 A 
ATOM     48  CE1 PHE A   2      10.107   1.150  23.273  0.00  0.00    +0.000 A 
ATOM     49  CD1 PHE A   2       8.881   0.638  22.850  0.00  0.00    +0.004 A 
ENDBRANCH  43  44
ENDBRANCH  30  43
ENDBRANCH  26  30
ENDBRANCH   1  28
BRANCH   1  50
ATOM     50  CB  GLN A   3       7.311  -5.949  23.500  0.00  0.00    +0.041 C 
BRANCH  50  51
ATOM     51  CG  GLN A   3       8.561  -5.211  23.977  0.00  0.00    +0.098 C 
BRANCH  51  52
ATOM     52  CD  GLN A   3       8.909  -5.507  25.419  0.00  0.00    +0.211 C 
ATOM     53  NE2 GLN A   3      10.222  -5.397  25.760  0.00  0.00    -0.329 N 
ATOM     54 HE21 GLN A   3      10.469  -5.603  26.720  0.00  0.00    +0.145 HD
ATOM     55 HE22 GLN A   3      10.966  -5.233  25.098  0.00  0.00    +0.145 HD
ATOM     56  OE1 GLN A   3       8.064  -5.773  26.266  0.00  0.00    -0.276 OA
ENDBRANCH  51  52
ENDBRANCH  50  51
ENDBRANCH   1  50
TORSDOF 22
ENDMDL
MODEL 15
REMARK VINA RESULT:      -6.4      2.790      7.121
REMARK  Name = TFQSAV-mmff94.pdb
REMARK  26 active torsions:
REMARK  status: ('A' for Active; 'I' for Inactive)
REMARK    1  A    between atoms: _1  and  _2
REMARK    2  A    between atoms: _2  and  _3
REMARK    3  A    between atoms: _2  and  _5
REMARK    4  A    between atoms: _5  and  _6
REMARK    5  A    between atoms: _5  and  _7
REMARK    6  A    between atoms: _15  and  _16
REMARK    7  A    between atoms: _16  and  _17
REMARK    8  A    between atoms: _16  and  _19
REMARK    9  A    between atoms: _19  and  _20
REMARK   10  A    between atoms: _35  and  _36
REMARK   11  A    between atoms: _36  and  _37
REMARK   12  A    between atoms: _36  and  _39
REMARK   13  A    between atoms: _39  and  _40
REMARK   14  A    between atoms: _40  and  _41
REMARK   15  A    between atoms: _52  and  _53
REMARK   16  A    between atoms: _53  and  _54
REMARK   17  A    between atoms: _53  and  _56
REMARK   18  A    between atoms: _56  and  _57
REMARK   19  A    between atoms: _63  and  _64
REMARK   20  A    between atoms: _64  and  _65
REMARK   21  A    between atoms: _64  and  _67
REMARK   22  A    between atoms: _73  and  _74
REMARK   23  A    between atoms: _74  and  _75
REMARK   24  A    between atoms: _74  and  _77
REMARK   25  A    between atoms: _77  and  _78
REMARK   26  A    between atoms: _77  and  _79
REMARK                            x       y       z     vdW  Elec       q    Type
REMARK                         _______ _______ _______ _____ _____    ______ ____
ROOT
ATOM      1  CA  GLN A   3       5.671  -4.637  23.863  0.00  0.00    +0.159 C 
ENDROOT
BRANCH   1   2
ATOM      2  C   GLN A   3       4.476  -4.234  24.748  0.00  0.00    +0.234 C 
ATOM      3  O   GLN A   3       3.312  -4.319  24.353  0.00  0.00    -0.274 OA
ATOM      4  N   SER A   4       4.796  -3.739  25.986  0.00  0.00    -0.301 N 
ATOM      5  H   SER A   4       5.764  -3.625  26.281  0.00  0.00    +0.150 HD
BRANCH   4   6
ATOM      6  CA  SER A   4       3.785  -3.167  26.880  0.00  0.00    +0.184 C 
BRANCH   6   7
ATOM      7  C   SER A   4       4.458  -2.051  27.694  0.00  0.00    +0.236 C 
ATOM      8  N   ALA A   5       5.398  -1.316  27.018  0.00  0.00    -0.303 N 
ATOM      9  H   ALA A   5       5.610  -1.502  26.041  0.00  0.00    +0.149 HD
ATOM     10  O   SER A   4       4.181  -1.857  28.880  0.00  0.00    -0.274 OA
BRANCH   8  11
ATOM     11  CA  ALA A   5       6.062  -0.157  27.602  0.00  0.00    +0.156 C 
ATOM     12  CB  ALA A   5       7.538  -0.098  27.227  0.00  0.00    +0.038 C 
BRANCH  11  13
ATOM     13  C   ALA A   5       5.334   1.091  27.076  0.00  0.00    +0.234 C 
ATOM     14  N   VAL A   6       6.018   1.805  26.124  0.00  0.00    -0.304 N 
ATOM     15  H   VAL A   6       6.906   1.461  25.766  0.00  0.00    +0.149 HD
ATOM     16  O   ALA A   5       4.212   1.408  27.476  0.00  0.00    -0.274 OA
BRANCH  14  17
ATOM     17  CA  VAL A   6       5.458   2.978  25.454  0.00  0.00    +0.138 C 
BRANCH  17  18
ATOM     18  CB  VAL A   6       6.526   4.044  25.127  0.00  0.00    +0.010 C 
ATOM     19  CG2 VAL A   6       7.687   4.023  26.128  0.00  0.00    +0.009 C 
ATOM     20  CG1 VAL A   6       5.927   5.456  25.105  0.00  0.00    +0.009 C 
ENDBRANCH  17  18
BRANCH  17  21
ATOM     21  C   VAL A   6       4.810   2.441  24.179  0.00  0.00    +0.245 C 
ATOM     22  O   VAL A   6       3.604   2.516  23.944  0.00  0.00    -0.299 OA
ENDBRANCH  17  21
ENDBRANCH  14  17
ENDBRANCH  11  13
ENDBRANCH   8  11
ENDBRANCH   6   7
BRANCH   6  23
ATOM     23  CB  SER A   4       3.161  -4.226  27.797  0.00  0.00    +0.187 C 
BRANCH  23  24
ATOM     24  OG  SER A   4       4.111  -4.743  28.730  0.00  0.00    -0.393 OA
ATOM     25  H   SER A   4       4.953  -4.835  28.249  0.00  0.00    +0.209 HD
ENDBRANCH  23  24
ENDBRANCH   6  23
ENDBRANCH   4   6
ENDBRANCH   1   2
BRANCH   1  28
ATOM     26  C   PHE A   2       6.242  -2.874  22.197  0.00  0.00    +0.234 C 
ATOM     27  O   PHE A   2       5.553  -3.397  21.321  0.00  0.00    -0.274 OA
ATOM     28  N   GLN A   3       6.323  -3.388  23.471  0.00  0.00    -0.302 N 
ATOM     29  H   GLN A   3       6.958  -2.975  24.150  0.00  0.00    +0.150 HD
BRANCH  26  30
ATOM     30  CA  PHE A   2       7.015  -1.559  21.982  0.00  0.00    +0.163 C 
BRANCH  30  32
ATOM     31  C   THR A   1       7.198  -0.188  19.923  0.00  0.00    +0.233 C 
ATOM     32  N   PHE A   2       6.429  -0.860  20.844  0.00  0.00    -0.302 N 
ATOM     33  H   PHE A   2       5.474  -1.085  20.592  0.00  0.00    +0.150 HD
ATOM     34  O   THR A   1       8.416  -0.063  20.032  0.00  0.00    -0.274 OA
BRANCH  31  35
ATOM     35  CA  THR A   1       6.385   0.444  18.779  0.00  0.00    +0.166 C 
BRANCH  35  36
ATOM     36  N   THR A   1       5.887  -0.641  17.892  0.00  0.00    -0.318 NA
ATOM     37  H1  THR A   1       5.349  -0.170  17.156  0.00  0.00    +0.119 HD
ATOM     38  H2  THR A   1       5.188  -1.176  18.412  0.00  0.00    +0.119 HD
ENDBRANCH  35  36
BRANCH  35  39
ATOM     39  CB  THR A   1       5.219   1.290  19.334  0.00  0.00    +0.137 C 
ATOM     40  CG2 THR A   1       5.658   2.118  20.538  0.00  0.00    +0.040 C 
BRANCH  39  41
ATOM     41  OG1 THR A   1       4.764   2.185  18.305  0.00  0.00    -0.390 OA
ATOM     42  HG1 THR A   1       5.137   1.866  17.464  0.00  0.00    +0.210 HD
ENDBRANCH  39  41
ENDBRANCH  35  39
ENDBRANCH  31  35
ENDBRANCH  30  32
BRANCH  30  43
ATOM     43  CB  PHE A   2       6.944  -0.716  23.264  0.00  0.00    +0.067 C 
BRANCH  43  44
ATOM     44  CG  PHE A   2       8.244  -0.006  23.561  0.00  0.00    -0.045 A 
ATOM     45  CD2 PHE A   2       8.385   1.365  23.307  0.00  0.00    +0.004 A 
ATOM     46  CE2 PHE A   2       9.568   2.026  23.640  0.00  0.00    +0.000 A 
ATOM     47  CZ  PHE A   2      10.618   1.328  24.234  0.00  0.00    +0.000 A 
ATOM     48  CE1 PHE A   2      10.488  -0.035  24.492  0.00  0.00    +0.000 A 
ATOM     49  CD1 PHE A   2       9.309  -0.699  24.156  0.00  0.00    +0.004 A 
ENDBRANCH  43  44
ENDBRANCH  30  43
ENDBRANCH  26  30
ENDBRANCH   1  28
BRANCH   1  50
ATOM     50  CB  GLN A   3       6.652  -5.539  24.626  0.00  0.00    +0.041 C 
BRANCH  50  51
ATOM     51  CG  GLN A   3       8.062  -4.960  24.738  0.00  0.00    +0.098 C 
BRANCH  51  52
ATOM     52  CD  GLN A   3       8.347  -4.354  26.095  0.00  0.00    +0.211 C 
ATOM     53  NE2 GLN A   3       9.373  -4.905  26.799  0.00  0.00    -0.329 N 
ATOM     54 HE21 GLN A   3       9.567  -4.515  27.713  0.00  0.00    +0.145 HD
ATOM     55 HE22 GLN A   3       9.871  -5.736  26.517  0.00  0.00    +0.145 HD
ATOM     56  OE1 GLN A   3       7.741  -3.381  26.529  0.00  0.00    -0.276 OA
ENDBRANCH  51  52
ENDBRANCH  50  51
ENDBRANCH   1  50
TORSDOF 22
ENDMDL
MODEL 16
REMARK VINA RESULT:      -6.4      1.792      2.891
REMARK  Name = TFQSAV-mmff94.pdb
REMARK  26 active torsions:
REMARK  status: ('A' for Active; 'I' for Inactive)
REMARK    1  A    between atoms: _1  and  _2
REMARK    2  A    between atoms: _2  and  _3
REMARK    3  A    between atoms: _2  and  _5
REMARK    4  A    between atoms: _5  and  _6
REMARK    5  A    between atoms: _5  and  _7
REMARK    6  A    between atoms: _15  and  _16
REMARK    7  A    between atoms: _16  and  _17
REMARK    8  A    between atoms: _16  and  _19
REMARK    9  A    between atoms: _19  and  _20
REMARK   10  A    between atoms: _35  and  _36
REMARK   11  A    between atoms: _36  and  _37
REMARK   12  A    between atoms: _36  and  _39
REMARK   13  A    between atoms: _39  and  _40
REMARK   14  A    between atoms: _40  and  _41
REMARK   15  A    between atoms: _52  and  _53
REMARK   16  A    between atoms: _53  and  _54
REMARK   17  A    between atoms: _53  and  _56
REMARK   18  A    between atoms: _56  and  _57
REMARK   19  A    between atoms: _63  and  _64
REMARK   20  A    between atoms: _64  and  _65
REMARK   21  A    between atoms: _64  and  _67
REMARK   22  A    between atoms: _73  and  _74
REMARK   23  A    between atoms: _74  and  _75
REMARK   24  A    between atoms: _74  and  _77
REMARK   25  A    between atoms: _77  and  _78
REMARK   26  A    between atoms: _77  and  _79
REMARK                            x       y       z     vdW  Elec       q    Type
REMARK                         _______ _______ _______ _____ _____    ______ ____
ROOT
ATOM      1  CA  GLN A   3      10.073   0.414  22.464  0.00  0.00    +0.159 C 
ENDROOT
BRANCH   1   2
ATOM      2  C   GLN A   3      10.602   1.499  23.422  0.00  0.00    +0.234 C 
ATOM      3  O   GLN A   3      10.825   1.269  24.611  0.00  0.00    -0.274 OA
ATOM      4  N   SER A   4      10.770   2.744  22.872  0.00  0.00    -0.301 N 
ATOM      5  H   SER A   4      10.533   2.933  21.899  0.00  0.00    +0.150 HD
BRANCH   4   6
ATOM      6  CA  SER A   4      11.113   3.914  23.685  0.00  0.00    +0.184 C 
BRANCH   6   7
ATOM      7  C   SER A   4       9.841   4.761  23.845  0.00  0.00    +0.236 C 
ATOM      8  N   ALA A   5       8.758   4.337  23.119  0.00  0.00    -0.303 N 
ATOM      9  H   ALA A   5       8.809   3.508  22.532  0.00  0.00    +0.149 HD
ATOM     10  O   SER A   4       9.816   5.763  24.562  0.00  0.00    -0.274 OA
BRANCH   8  11
ATOM     11  CA  ALA A   5       7.444   4.959  23.227  0.00  0.00    +0.156 C 
ATOM     12  CB  ALA A   5       7.131   5.841  22.025  0.00  0.00    +0.038 C 
BRANCH  11  13
ATOM     13  C   ALA A   5       6.414   3.821  23.328  0.00  0.00    +0.234 C 
ATOM     14  N   VAL A   6       5.154   4.209  23.708  0.00  0.00    -0.304 N 
ATOM     15  H   VAL A   6       4.938   5.195  23.833  0.00  0.00    +0.149 HD
ATOM     16  O   ALA A   5       6.707   2.652  23.069  0.00  0.00    -0.274 OA
BRANCH  14  17
ATOM     17  CA  VAL A   6       4.025   3.282  23.788  0.00  0.00    +0.138 C 
BRANCH  17  18
ATOM     18  CB  VAL A   6       3.206   3.453  25.085  0.00  0.00    +0.010 C 
ATOM     19  CG2 VAL A   6       1.707   3.230  24.854  0.00  0.00    +0.009 C 
ATOM     20  CG1 VAL A   6       3.402   4.846  25.698  0.00  0.00    +0.009 C 
ENDBRANCH  17  18
BRANCH  17  21
ATOM     21  C   VAL A   6       3.173   3.579  22.556  0.00  0.00    +0.245 C 
ATOM     22  O   VAL A   6       3.459   3.198  21.421  0.00  0.00    -0.299 OA
ENDBRANCH  17  21
ENDBRANCH  14  17
ENDBRANCH  11  13
ENDBRANCH   8  11
ENDBRANCH   6   7
BRANCH   6  23
ATOM     23  CB  SER A   4      12.252   4.733  23.064  0.00  0.00    +0.187 C 
BRANCH  23  24
ATOM     24  OG  SER A   4      12.872   5.588  24.025  0.00  0.00    -0.393 OA
ATOM     25  H   SER A   4      12.689   5.204  24.901  0.00  0.00    +0.209 HD
ENDBRANCH  23  24
ENDBRANCH   6  23
ENDBRANCH   4   6
ENDBRANCH   1   2
BRANCH   1  28
ATOM     26  C   PHE A   2       9.572  -1.829  23.428  0.00  0.00    +0.234 C 
ATOM     27  O   PHE A   2      10.580  -2.331  22.931  0.00  0.00    -0.274 OA
ATOM     28  N   GLN A   3       9.271  -0.494  23.285  0.00  0.00    -0.302 N 
ATOM     29  H   GLN A   3       8.395  -0.124  23.646  0.00  0.00    +0.150 HD
BRANCH  26  30
ATOM     30  CA  PHE A   2       8.593  -2.618  24.319  0.00  0.00    +0.163 C 
BRANCH  30  32
ATOM     31  C   THR A   1       7.095  -1.309  25.799  0.00  0.00    +0.233 C 
ATOM     32  N   PHE A   2       7.414  -1.791  24.552  0.00  0.00    -0.302 N 
ATOM     33  H   PHE A   2       6.972  -1.361  23.749  0.00  0.00    +0.150 HD
ATOM     34  O   THR A   1       7.728  -1.600  26.812  0.00  0.00    -0.274 OA
BRANCH  31  35
ATOM     35  CA  THR A   1       5.836  -0.424  25.819  0.00  0.00    +0.166 C 
BRANCH  35  36
ATOM     36  N   THR A   1       5.528  -0.001  24.427  0.00  0.00    -0.318 NA
ATOM     37  H1  THR A   1       4.514   0.152  24.402  0.00  0.00    +0.119 HD
ATOM     38  H2  THR A   1       5.677  -0.806  23.814  0.00  0.00    +0.119 HD
ENDBRANCH  35  36
BRANCH  35  39
ATOM     39  CB  THR A   1       4.644  -1.175  26.449  0.00  0.00    +0.137 C 
ATOM     40  CG2 THR A   1       4.343  -2.468  25.698  0.00  0.00    +0.040 C 
BRANCH  39  41
ATOM     41  OG1 THR A   1       4.969  -1.502  27.811  0.00  0.00    -0.390 OA
ATOM     42  HG1 THR A   1       4.143  -1.785  28.242  0.00  0.00    +0.210 HD
ENDBRANCH  39  41
ENDBRANCH  35  39
ENDBRANCH  31  35
ENDBRANCH  30  32
BRANCH  30  43
ATOM     43  CB  PHE A   2       8.232  -3.939  23.623  0.00  0.00    +0.067 C 
BRANCH  43  44
ATOM     44  CG  PHE A   2       7.246  -4.761  24.422  0.00  0.00    -0.045 A 
ATOM     45  CD2 PHE A   2       7.450  -4.992  25.789  0.00  0.00    +0.004 A 
ATOM     46  CE2 PHE A   2       6.506  -5.700  26.533  0.00  0.00    +0.000 A 
ATOM     47  CZ  PHE A   2       5.348  -6.178  25.922  0.00  0.00    +0.000 A 
ATOM     48  CE1 PHE A   2       5.135  -5.953  24.564  0.00  0.00    +0.000 A 
ATOM     49  CD1 PHE A   2       6.079  -5.250  23.817  0.00  0.00    +0.004 A 
ENDBRANCH  43  44
ENDBRANCH  30  43
ENDBRANCH  26  30
ENDBRANCH   1  28
BRANCH   1  50
ATOM     50  CB  GLN A   3       9.216   1.025  21.346  0.00  0.00    +0.041 C 
BRANCH  50  51
ATOM     51  CG  GLN A   3       8.433  -0.007  20.535  0.00  0.00    +0.098 C 
BRANCH  51  52
ATOM     52  CD  GLN A   3       7.010  -0.180  21.017  0.00  0.00    +0.211 C 
ATOM     53  NE2 GLN A   3       6.115   0.763  20.614  0.00  0.00    -0.329 N 
ATOM     54 HE21 GLN A   3       5.161   0.663  20.937  0.00  0.00    +0.145 HD
ATOM     55 HE22 GLN A   3       6.366   1.601  20.111  0.00  0.00    +0.145 HD
ATOM     56  OE1 GLN A   3       6.646  -1.143  21.682  0.00  0.00    -0.276 OA
ENDBRANCH  51  52
ENDBRANCH  50  51
ENDBRANCH   1  50
TORSDOF 22
ENDMDL
MODEL 17
REMARK VINA RESULT:      -6.4      2.834      8.198
REMARK  Name = TFQSAV-mmff94.pdb
REMARK  26 active torsions:
REMARK  status: ('A' for Active; 'I' for Inactive)
REMARK    1  A    between atoms: _1  and  _2
REMARK    2  A    between atoms: _2  and  _3
REMARK    3  A    between atoms: _2  and  _5
REMARK    4  A    between atoms: _5  and  _6
REMARK    5  A    between atoms: _5  and  _7
REMARK    6  A    between atoms: _15  and  _16
REMARK    7  A    between atoms: _16  and  _17
REMARK    8  A    between atoms: _16  and  _19
REMARK    9  A    between atoms: _19  and  _20
REMARK   10  A    between atoms: _35  and  _36
REMARK   11  A    between atoms: _36  and  _37
REMARK   12  A    between atoms: _36  and  _39
REMARK   13  A    between atoms: _39  and  _40
REMARK   14  A    between atoms: _40  and  _41
REMARK   15  A    between atoms: _52  and  _53
REMARK   16  A    between atoms: _53  and  _54
REMARK   17  A    between atoms: _53  and  _56
REMARK   18  A    between atoms: _56  and  _57
REMARK   19  A    between atoms: _63  and  _64
REMARK   20  A    between atoms: _64  and  _65
REMARK   21  A    between atoms: _64  and  _67
REMARK   22  A    between atoms: _73  and  _74
REMARK   23  A    between atoms: _74  and  _75
REMARK   24  A    between atoms: _74  and  _77
REMARK   25  A    between atoms: _77  and  _78
REMARK   26  A    between atoms: _77  and  _79
REMARK                            x       y       z     vdW  Elec       q    Type
REMARK                         _______ _______ _______ _____ _____    ______ ____
ROOT
ATOM      1  CA  GLN A   3       8.904  -2.671  23.757  0.00  0.00    +0.159 C 
ENDROOT
BRANCH   1   2
ATOM      2  C   GLN A   3       7.924  -3.733  23.224  0.00  0.00    +0.234 C 
ATOM      3  O   GLN A   3       8.192  -4.935  23.235  0.00  0.00    -0.274 OA
ATOM      4  N   SER A   4       6.752  -3.249  22.701  0.00  0.00    -0.301 N 
ATOM      5  H   SER A   4       6.564  -2.249  22.650  0.00  0.00    +0.150 HD
BRANCH   4   6
ATOM      6  CA  SER A   4       5.790  -4.114  22.013  0.00  0.00    +0.184 C 
BRANCH   6   7
ATOM      7  C   SER A   4       4.800  -4.641  23.064  0.00  0.00    +0.236 C 
ATOM      8  N   ALA A   5       5.362  -5.060  24.242  0.00  0.00    -0.303 N 
ATOM      9  H   ALA A   5       6.366  -5.004  24.396  0.00  0.00    +0.149 HD
ATOM     10  O   SER A   4       3.589  -4.699  22.841  0.00  0.00    -0.274 OA
BRANCH   8  11
ATOM     11  CA  ALA A   5       4.567  -5.494  25.384  0.00  0.00    +0.156 C 
ATOM     12  CB  ALA A   5       4.308  -6.995  25.361  0.00  0.00    +0.038 C 
BRANCH  11  13
ATOM     13  C   ALA A   5       5.354  -5.115  26.650  0.00  0.00    +0.234 C 
ATOM     14  N   VAL A   6       4.742  -5.441  27.835  0.00  0.00    -0.304 N 
ATOM     15  H   VAL A   6       3.867  -5.960  27.833  0.00  0.00    +0.149 HD
ATOM     16  O   ALA A   5       6.460  -4.573  26.593  0.00  0.00    -0.274 OA
BRANCH  14  17
ATOM     17  CA  VAL A   6       5.367  -5.227  29.139  0.00  0.00    +0.138 C 
BRANCH  17  18
ATOM     18  CB  VAL A   6       4.334  -5.043  30.272  0.00  0.00    +0.010 C 
ATOM     19  CG2 VAL A   6       3.044  -5.828  30.009  0.00  0.00    +0.009 C 
ATOM     20  CG1 VAL A   6       3.973  -3.565  30.473  0.00  0.00    +0.009 C 
ENDBRANCH  17  18
BRANCH  17  21
ATOM     21  C   VAL A   6       6.231  -6.463  29.379  0.00  0.00    +0.245 C 
ATOM     22  O   VAL A   6       5.942  -7.587  28.968  0.00  0.00    -0.299 OA
ENDBRANCH  17  21
ENDBRANCH  14  17
ENDBRANCH  11  13
ENDBRANCH   8  11
ENDBRANCH   6   7
BRANCH   6  23
ATOM     23  CB  SER A   4       6.479  -5.266  21.271  0.00  0.00    +0.187 C 
BRANCH  23  24
ATOM     24  OG  SER A   4       6.030  -6.538  21.738  0.00  0.00    -0.393 OA
ATOM     25  H   SER A   4       5.061  -6.547  21.638  0.00  0.00    +0.209 HD
ENDBRANCH  23  24
ENDBRANCH   6  23
ENDBRANCH   4   6
ENDBRANCH   1   2
BRANCH   1  28
ATOM     26  C   PHE A   2       9.461  -0.994  22.001  0.00  0.00    +0.234 C 
ATOM     27  O   PHE A   2      10.452  -1.623  21.633  0.00  0.00    -0.274 OA
ATOM     28  N   GLN A   3       8.631  -1.451  22.999  0.00  0.00    -0.302 N 
ATOM     29  H   GLN A   3       7.862  -0.873  23.330  0.00  0.00    +0.150 HD
BRANCH  26  30
ATOM     30  CA  PHE A   2       9.007   0.320  21.337  0.00  0.00    +0.163 C 
BRANCH  30  32
ATOM     31  C   THR A   1       7.015  -0.497  20.106  0.00  0.00    +0.233 C 
ATOM     32  N   PHE A   2       8.300  -0.007  20.104  0.00  0.00    -0.302 N 
ATOM     33  H   PHE A   2       8.664   0.367  19.236  0.00  0.00    +0.150 HD
ATOM     34  O   THR A   1       6.402  -0.765  21.138  0.00  0.00    -0.274 OA
BRANCH  31  35
ATOM     35  CA  THR A   1       6.440  -0.736  18.699  0.00  0.00    +0.166 C 
BRANCH  35  36
ATOM     36  N   THR A   1       5.542  -1.921  18.745  0.00  0.00    -0.318 NA
ATOM     37  H1  THR A   1       5.452  -2.237  17.773  0.00  0.00    +0.119 HD
ATOM     38  H2  THR A   1       4.606  -1.595  18.993  0.00  0.00    +0.119 HD
ENDBRANCH  35  36
BRANCH  35  39
ATOM     39  CB  THR A   1       5.689   0.513  18.190  0.00  0.00    +0.137 C 
ATOM     40  CG2 THR A   1       5.320   1.444  19.340  0.00  0.00    +0.040 C 
BRANCH  39  41
ATOM     41  OG1 THR A   1       6.540   1.228  17.279  0.00  0.00    -0.390 OA
ATOM     42  HG1 THR A   1       7.190   1.715  17.816  0.00  0.00    +0.210 HD
ENDBRANCH  39  41
ENDBRANCH  35  39
ENDBRANCH  31  35
ENDBRANCH  30  32
BRANCH  30  43
ATOM     43  CB  PHE A   2       8.112   1.097  22.315  0.00  0.00    +0.067 C 
BRANCH  43  44
ATOM     44  CG  PHE A   2       8.764   2.368  22.808  0.00  0.00    -0.045 A 
ATOM     45  CD2 PHE A   2       7.986   3.476  23.172  0.00  0.00    +0.004 A 
ATOM     46  CE2 PHE A   2       8.591   4.624  23.684  0.00  0.00    +0.000 A 
ATOM     47  CZ  PHE A   2       9.975   4.677  23.841  0.00  0.00    +0.000 A 
ATOM     48  CE1 PHE A   2      10.757   3.581  23.483  0.00  0.00    +0.000 A 
ATOM     49  CD1 PHE A   2      10.156   2.433  22.968  0.00  0.00    +0.004 A 
ENDBRANCH  43  44
ENDBRANCH  30  43
ENDBRANCH  26  30
ENDBRANCH   1  28
BRANCH   1  50
ATOM     50  CB  GLN A   3       8.700  -2.427  25.260  0.00  0.00    +0.041 C 
BRANCH  50  51
ATOM     51  CG  GLN A   3       7.988  -1.113  25.579  0.00  0.00    +0.098 C 
BRANCH  51  52
ATOM     52  CD  GLN A   3       6.481  -1.245  25.595  0.00  0.00    +0.211 C 
ATOM     53  NE2 GLN A   3       5.907  -1.481  26.805  0.00  0.00    -0.329 N 
ATOM     54 HE21 GLN A   3       4.899  -1.582  26.827  0.00  0.00    +0.145 HD
ATOM     55 HE22 GLN A   3       6.426  -1.669  27.650  0.00  0.00    +0.145 HD
ATOM     56  OE1 GLN A   3       5.790  -1.090  24.594  0.00  0.00    -0.276 OA
ENDBRANCH  51  52
ENDBRANCH  50  51
ENDBRANCH   1  50
TORSDOF 22
ENDMDL
MODEL 18
REMARK VINA RESULT:      -6.4      2.775      8.172
REMARK  Name = TFQSAV-mmff94.pdb
REMARK  26 active torsions:
REMARK  status: ('A' for Active; 'I' for Inactive)
REMARK    1  A    between atoms: _1  and  _2
REMARK    2  A    between atoms: _2  and  _3
REMARK    3  A    between atoms: _2  and  _5
REMARK    4  A    between atoms: _5  and  _6
REMARK    5  A    between atoms: _5  and  _7
REMARK    6  A    between atoms: _15  and  _16
REMARK    7  A    between atoms: _16  and  _17
REMARK    8  A    between atoms: _16  and  _19
REMARK    9  A    between atoms: _19  and  _20
REMARK   10  A    between atoms: _35  and  _36
REMARK   11  A    between atoms: _36  and  _37
REMARK   12  A    between atoms: _36  and  _39
REMARK   13  A    between atoms: _39  and  _40
REMARK   14  A    between atoms: _40  and  _41
REMARK   15  A    between atoms: _52  and  _53
REMARK   16  A    between atoms: _53  and  _54
REMARK   17  A    between atoms: _53  and  _56
REMARK   18  A    between atoms: _56  and  _57
REMARK   19  A    between atoms: _63  and  _64
REMARK   20  A    between atoms: _64  and  _65
REMARK   21  A    between atoms: _64  and  _67
REMARK   22  A    between atoms: _73  and  _74
REMARK   23  A    between atoms: _74  and  _75
REMARK   24  A    between atoms: _74  and  _77
REMARK   25  A    between atoms: _77  and  _78
REMARK   26  A    between atoms: _77  and  _79
REMARK                            x       y       z     vdW  Elec       q    Type
REMARK                         _______ _______ _______ _____ _____    ______ ____
ROOT
ATOM      1  CA  GLN A   3       8.979  -2.935  24.113  0.00  0.00    +0.159 C 
ENDROOT
BRANCH   1   2
ATOM      2  C   GLN A   3       7.796  -3.530  23.326  0.00  0.00    +0.234 C 
ATOM      3  O   GLN A   3       7.362  -3.002  22.301  0.00  0.00    -0.274 OA
ATOM      4  N   SER A   4       7.235  -4.660  23.862  0.00  0.00    -0.301 N 
ATOM      5  H   SER A   4       7.570  -5.057  24.739  0.00  0.00    +0.150 HD
BRANCH   4   6
ATOM      6  CA  SER A   4       6.008  -5.252  23.322  0.00  0.00    +0.184 C 
BRANCH   6   7
ATOM      7  C   SER A   4       5.392  -6.135  24.418  0.00  0.00    +0.236 C 
ATOM      8  N   ALA A   5       5.662  -5.747  25.705  0.00  0.00    -0.303 N 
ATOM      9  H   ALA A   5       6.220  -4.920  25.900  0.00  0.00    +0.149 HD
ATOM     10  O   SER A   4       4.724  -7.135  24.146  0.00  0.00    -0.274 OA
BRANCH   8  11
ATOM     11  CA  ALA A   5       5.078  -6.407  26.867  0.00  0.00    +0.156 C 
ATOM     12  CB  ALA A   5       5.940  -6.237  28.111  0.00  0.00    +0.038 C 
BRANCH  11  13
ATOM     13  C   ALA A   5       3.694  -5.776  27.094  0.00  0.00    +0.234 C 
ATOM     14  N   VAL A   6       3.702  -4.422  27.320  0.00  0.00    -0.304 N 
ATOM     15  H   VAL A   6       4.572  -3.899  27.260  0.00  0.00    +0.149 HD
ATOM     16  O   ALA A   5       2.659  -6.445  27.058  0.00  0.00    -0.274 OA
BRANCH  14  17
ATOM     17  CA  VAL A   6       2.480  -3.635  27.484  0.00  0.00    +0.138 C 
BRANCH  17  18
ATOM     18  CB  VAL A   6       2.532  -2.706  28.716  0.00  0.00    +0.010 C 
ATOM     19  CG2 VAL A   6       2.784  -1.245  28.327  0.00  0.00    +0.009 C 
ATOM     20  CG1 VAL A   6       3.621  -3.141  29.706  0.00  0.00    +0.009 C 
ENDBRANCH  17  18
BRANCH  17  21
ATOM     21  C   VAL A   6       2.344  -2.830  26.193  0.00  0.00    +0.245 C 
ATOM     22  O   VAL A   6       3.164  -2.870  25.276  0.00  0.00    -0.299 OA
ENDBRANCH  17  21
ENDBRANCH  14  17
ENDBRANCH  11  13
ENDBRANCH   8  11
ENDBRANCH   6   7
BRANCH   6  23
ATOM     23  CB  SER A   4       6.272  -6.056  22.042  0.00  0.00    +0.187 C 
BRANCH  23  24
ATOM     24  OG  SER A   4       5.928  -5.313  20.872  0.00  0.00    -0.393 OA
ATOM     25  H   SER A   4       5.319  -5.871  20.356  0.00  0.00    +0.209 HD
ENDBRANCH  23  24
ENDBRANCH   6  23
ENDBRANCH   4   6
ENDBRANCH   1   2
BRANCH   1  28
ATOM     26  C   PHE A   2      10.020  -1.094  22.797  0.00  0.00    +0.234 C 
ATOM     27  O   PHE A   2      10.795  -1.861  22.226  0.00  0.00    -0.274 OA
ATOM     28  N   GLN A   3       9.079  -1.536  23.698  0.00  0.00    -0.302 N 
ATOM     29  H   GLN A   3       8.504  -0.869  24.206  0.00  0.00    +0.150 HD
BRANCH  26  30
ATOM     30  CA  PHE A   2       9.973   0.419  22.506  0.00  0.00    +0.163 C 
BRANCH  30  32
ATOM     31  C   THR A   1       7.883   0.539  21.177  0.00  0.00    +0.233 C 
ATOM     32  N   PHE A   2       9.253   0.625  21.255  0.00  0.00    -0.302 N 
ATOM     33  H   PHE A   2       9.744   1.082  20.497  0.00  0.00    +0.150 HD
ATOM     34  O   THR A   1       7.177   0.210  22.129  0.00  0.00    -0.274 OA
BRANCH  31  35
ATOM     35  CA  THR A   1       7.321   0.833  19.775  0.00  0.00    +0.166 C 
BRANCH  35  36
ATOM     36  N   THR A   1       7.989  -0.066  18.796  0.00  0.00    -0.318 NA
ATOM     37  H1  THR A   1       7.240  -0.420  18.190  0.00  0.00    +0.119 HD
ATOM     38  H2  THR A   1       8.318  -0.891  19.301  0.00  0.00    +0.119 HD
ENDBRANCH  35  36
BRANCH  35  39
ATOM     39  CB  THR A   1       5.789   0.648  19.745  0.00  0.00    +0.137 C 
ATOM     40  CG2 THR A   1       5.189   1.200  18.456  0.00  0.00    +0.040 C 
BRANCH  39  41
ATOM     41  OG1 THR A   1       5.488  -0.755  19.824  0.00  0.00    -0.390 OA
ATOM     42  HG1 THR A   1       5.503  -0.998  20.767  0.00  0.00    +0.210 HD
ENDBRANCH  39  41
ENDBRANCH  35  39
ENDBRANCH  31  35
ENDBRANCH  30  32
BRANCH  30  43
ATOM     43  CB  PHE A   2       9.289   1.137  23.679  0.00  0.00    +0.067 C 
BRANCH  43  44
ATOM     44  CG  PHE A   2       9.717   2.581  23.801  0.00  0.00    -0.045 A 
ATOM     45  CD2 PHE A   2      10.975   2.995  23.344  0.00  0.00    +0.004 A 
ATOM     46  CE2 PHE A   2      11.338   4.341  23.404  0.00  0.00    +0.000 A 
ATOM     47  CZ  PHE A   2      10.450   5.285  23.915  0.00  0.00    +0.000 A 
ATOM     48  CE1 PHE A   2       9.196   4.884  24.371  0.00  0.00    +0.000 A 
ATOM     49  CD1 PHE A   2       8.832   3.539  24.316  0.00  0.00    +0.004 A 
ENDBRANCH  43  44
ENDBRANCH  30  43
ENDBRANCH  26  30
ENDBRANCH   1  28
BRANCH   1  50
ATOM     50  CB  GLN A   3       8.745  -3.030  25.628  0.00  0.00    +0.041 C 
BRANCH  50  51
ATOM     51  CG  GLN A   3       8.020  -1.820  26.217  0.00  0.00    +0.098 C 
BRANCH  51  52
ATOM     52  CD  GLN A   3       6.528  -2.032  26.349  0.00  0.00    +0.211 C 
ATOM     53  NE2 GLN A   3       5.734  -1.251  25.566  0.00  0.00    -0.329 N 
ATOM     54 HE21 GLN A   3       4.733  -1.376  25.653  0.00  0.00    +0.145 HD
ATOM     55 HE22 GLN A   3       6.075  -0.491  24.996  0.00  0.00    +0.145 HD
ATOM     56  OE1 GLN A   3       6.040  -2.896  27.069  0.00  0.00    -0.276 OA
ENDBRANCH  51  52
ENDBRANCH  50  51
ENDBRANCH   1  50
TORSDOF 22
ENDMDL
MODEL 19
REMARK VINA RESULT:      -6.3      2.472      4.556
REMARK  Name = TFQSAV-mmff94.pdb
REMARK  26 active torsions:
REMARK  status: ('A' for Active; 'I' for Inactive)
REMARK    1  A    between atoms: _1  and  _2
REMARK    2  A    between atoms: _2  and  _3
REMARK    3  A    between atoms: _2  and  _5
REMARK    4  A    between atoms: _5  and  _6
REMARK    5  A    between atoms: _5  and  _7
REMARK    6  A    between atoms: _15  and  _16
REMARK    7  A    between atoms: _16  and  _17
REMARK    8  A    between atoms: _16  and  _19
REMARK    9  A    between atoms: _19  and  _20
REMARK   10  A    between atoms: _35  and  _36
REMARK   11  A    between atoms: _36  and  _37
REMARK   12  A    between atoms: _36  and  _39
REMARK   13  A    between atoms: _39  and  _40
REMARK   14  A    between atoms: _40  and  _41
REMARK   15  A    between atoms: _52  and  _53
REMARK   16  A    between atoms: _53  and  _54
REMARK   17  A    between atoms: _53  and  _56
REMARK   18  A    between atoms: _56  and  _57
REMARK   19  A    between atoms: _63  and  _64
REMARK   20  A    between atoms: _64  and  _65
REMARK   21  A    between atoms: _64  and  _67
REMARK   22  A    between atoms: _73  and  _74
REMARK   23  A    between atoms: _74  and  _75
REMARK   24  A    between atoms: _74  and  _77
REMARK   25  A    between atoms: _77  and  _78
REMARK   26  A    between atoms: _77  and  _79
REMARK                            x       y       z     vdW  Elec       q    Type
REMARK                         _______ _______ _______ _____ _____    ______ ____
ROOT
ATOM      1  CA  GLN A   3       6.952  -1.297  20.771  0.00  0.00    +0.159 C 
ENDROOT
BRANCH   1   2
ATOM      2  C   GLN A   3       7.641  -0.103  21.459  0.00  0.00    +0.234 C 
ATOM      3  O   GLN A   3       8.846  -0.103  21.715  0.00  0.00    -0.274 OA
ATOM      4  N   SER A   4       6.819   0.940  21.800  0.00  0.00    -0.301 N 
ATOM      5  H   SER A   4       5.815   0.906  21.629  0.00  0.00    +0.150 HD
BRANCH   4   6
ATOM      6  CA  SER A   4       7.292   2.075  22.599  0.00  0.00    +0.184 C 
BRANCH   6   7
ATOM      7  C   SER A   4       7.107   1.714  24.080  0.00  0.00    +0.236 C 
ATOM      8  N   ALA A   5       5.846   1.305  24.433  0.00  0.00    -0.303 N 
ATOM      9  H   ALA A   5       5.102   1.239  23.743  0.00  0.00    +0.149 HD
ATOM     10  O   SER A   4       8.030   1.811  24.891  0.00  0.00    -0.274 OA
BRANCH   8  11
ATOM     11  CA  ALA A   5       5.516   0.829  25.770  0.00  0.00    +0.156 C 
ATOM     12  CB  ALA A   5       4.389   1.636  26.401  0.00  0.00    +0.038 C 
BRANCH  11  13
ATOM     13  C   ALA A   5       5.096  -0.644  25.633  0.00  0.00    +0.234 C 
ATOM     14  N   VAL A   6       4.330  -1.129  26.663  0.00  0.00    -0.304 N 
ATOM     15  H   VAL A   6       4.023  -0.508  27.408  0.00  0.00    +0.149 HD
ATOM     16  O   ALA A   5       5.416  -1.325  24.656  0.00  0.00    -0.274 OA
BRANCH  14  17
ATOM     17  CA  VAL A   6       3.775  -2.482  26.674  0.00  0.00    +0.138 C 
BRANCH  17  18
ATOM     18  CB  VAL A   6       4.413  -3.378  27.758  0.00  0.00    +0.010 C 
ATOM     19  CG2 VAL A   6       5.746  -3.980  27.299  0.00  0.00    +0.009 C 
ATOM     20  CG1 VAL A   6       3.477  -4.523  28.167  0.00  0.00    +0.009 C 
ENDBRANCH  17  18
BRANCH  17  21
ATOM     21  C   VAL A   6       2.279  -2.301  26.922  0.00  0.00    +0.245 C 
ATOM     22  O   VAL A   6       1.501  -1.843  26.085  0.00  0.00    -0.299 OA
ENDBRANCH  17  21
ENDBRANCH  14  17
ENDBRANCH  11  13
ENDBRANCH   8  11
ENDBRANCH   6   7
BRANCH   6  23
ATOM     23  CB  SER A   4       6.555   3.373  22.246  0.00  0.00    +0.187 C 
BRANCH  23  24
ATOM     24  OG  SER A   4       7.465   4.428  21.932  0.00  0.00    -0.393 OA
ATOM     25  H   SER A   4       7.012   5.262  22.148  0.00  0.00    +0.209 HD
ENDBRANCH  23  24
ENDBRANCH   6  23
ENDBRANCH   4   6
ENDBRANCH   1   2
BRANCH   1  28
ATOM     26  C   PHE A   2       6.071  -3.478  21.591  0.00  0.00    +0.234 C 
ATOM     27  O   PHE A   2       5.902  -3.905  20.450  0.00  0.00    -0.274 OA
ATOM     28  N   GLN A   3       6.614  -2.238  21.838  0.00  0.00    -0.302 N 
ATOM     29  H   GLN A   3       6.673  -1.885  22.790  0.00  0.00    +0.150 HD
BRANCH  26  30
ATOM     30  CA  PHE A   2       5.768  -4.311  22.852  0.00  0.00    +0.163 C 
BRANCH  30  32
ATOM     31  C   THR A   1       7.967  -4.648  23.949  0.00  0.00    +0.233 C 
ATOM     32  N   PHE A   2       6.763  -3.987  23.868  0.00  0.00    -0.302 N 
ATOM     33  H   PHE A   2       6.673  -3.104  24.353  0.00  0.00    +0.150 HD
ATOM     34  O   THR A   1       8.258  -5.601  23.229  0.00  0.00    -0.274 OA
BRANCH  31  35
ATOM     35  CA  THR A   1       8.888  -4.123  25.065  0.00  0.00    +0.166 C 
BRANCH  35  36
ATOM     36  N   THR A   1      10.061  -5.030  25.180  0.00  0.00    -0.318 NA
ATOM     37  H1  THR A   1       9.806  -5.879  24.664  0.00  0.00    +0.119 HD
ATOM     38  H2  THR A   1      10.128  -5.335  26.153  0.00  0.00    +0.119 HD
ENDBRANCH  35  36
BRANCH  35  39
ATOM     39  CB  THR A   1       9.331  -2.673  24.777  0.00  0.00    +0.137 C 
ATOM     40  CG2 THR A   1      10.062  -2.570  23.443  0.00  0.00    +0.040 C 
BRANCH  39  41
ATOM     41  OG1 THR A   1       8.166  -1.833  24.725  0.00  0.00    -0.390 OA
ATOM     42  HG1 THR A   1       8.156  -1.410  23.848  0.00  0.00    +0.210 HD
ENDBRANCH  39  41
ENDBRANCH  35  39
ENDBRANCH  31  35
ENDBRANCH  30  32
BRANCH  30  43
ATOM     43  CB  PHE A   2       4.344  -3.998  23.333  0.00  0.00    +0.067 C 
BRANCH  43  44
ATOM     44  CG  PHE A   2       3.728  -5.147  24.098  0.00  0.00    -0.045 A 
ATOM     45  CD2 PHE A   2       4.515  -6.223  24.529  0.00  0.00    +0.004 A 
ATOM     46  CE2 PHE A   2       3.951  -7.249  25.288  0.00  0.00    +0.000 A 
ATOM     47  CZ  PHE A   2       2.600  -7.209  25.628  0.00  0.00    +0.000 A 
ATOM     48  CE1 PHE A   2       1.809  -6.143  25.205  0.00  0.00    +0.000 A 
ATOM     49  CD1 PHE A   2       2.369  -5.118  24.443  0.00  0.00    +0.004 A 
ENDBRANCH  43  44
ENDBRANCH  30  43
ENDBRANCH  26  30
ENDBRANCH   1  28
BRANCH   1  50
ATOM     50  CB  GLN A   3       5.685  -0.855  20.023  0.00  0.00    +0.041 C 
BRANCH  50  51
ATOM     51  CG  GLN A   3       5.905  -0.611  18.530  0.00  0.00    +0.098 C 
BRANCH  51  52
ATOM     52  CD  GLN A   3       5.707   0.836  18.132  0.00  0.00    +0.211 C 
ATOM     53  NE2 GLN A   3       4.818   1.551  18.873  0.00  0.00    -0.329 N 
ATOM     54 HE21 GLN A   3       4.669   2.517  18.611  0.00  0.00    +0.145 HD
ATOM     55 HE22 GLN A   3       4.226   1.152  19.587  0.00  0.00    +0.145 HD
ATOM     56  OE1 GLN A   3       6.348   1.372  17.235  0.00  0.00    -0.276 OA
ENDBRANCH  51  52
ENDBRANCH  50  51
ENDBRANCH   1  50
TORSDOF 22
ENDMDL
MODEL 20
REMARK VINA RESULT:      -6.3      2.327      5.062
REMARK  Name = TFQSAV-mmff94.pdb
REMARK  26 active torsions:
REMARK  status: ('A' for Active; 'I' for Inactive)
REMARK    1  A    between atoms: _1  and  _2
REMARK    2  A    between atoms: _2  and  _3
REMARK    3  A    between atoms: _2  and  _5
REMARK    4  A    between atoms: _5  and  _6
REMARK    5  A    between atoms: _5  and  _7
REMARK    6  A    between atoms: _15  and  _16
REMARK    7  A    between atoms: _16  and  _17
REMARK    8  A    between atoms: _16  and  _19
REMARK    9  A    between atoms: _19  and  _20
REMARK   10  A    between atoms: _35  and  _36
REMARK   11  A    between atoms: _36  and  _37
REMARK   12  A    between atoms: _36  and  _39
REMARK   13  A    between atoms: _39  and  _40
REMARK   14  A    between atoms: _40  and  _41
REMARK   15  A    between atoms: _52  and  _53
REMARK   16  A    between atoms: _53  and  _54
REMARK   17  A    between atoms: _53  and  _56
REMARK   18  A    between atoms: _56  and  _57
REMARK   19  A    between atoms: _63  and  _64
REMARK   20  A    between atoms: _64  and  _65
REMARK   21  A    between atoms: _64  and  _67
REMARK   22  A    between atoms: _73  and  _74
REMARK   23  A    between atoms: _74  and  _75
REMARK   24  A    between atoms: _74  and  _77
REMARK   25  A    between atoms: _77  and  _78
REMARK   26  A    between atoms: _77  and  _79
REMARK                            x       y       z     vdW  Elec       q    Type
REMARK                         _______ _______ _______ _____ _____    ______ ____
ROOT
ATOM      1  CA  GLN A   3       7.216  -2.105  21.865  0.00  0.00    +0.159 C 
ENDROOT
BRANCH   1   2
ATOM      2  C   GLN A   3       7.411  -0.824  21.032  0.00  0.00    +0.234 C 
ATOM      3  O   GLN A   3       8.529  -0.381  20.766  0.00  0.00    -0.274 OA
ATOM      4  N   SER A   4       6.259  -0.189  20.643  0.00  0.00    -0.301 N 
ATOM      5  H   SER A   4       5.341  -0.538  20.914  0.00  0.00    +0.150 HD
BRANCH   4   6
ATOM      6  CA  SER A   4       6.276   1.120  19.984  0.00  0.00    +0.184 C 
BRANCH   6   7
ATOM      7  C   SER A   4       6.291   2.195  21.081  0.00  0.00    +0.236 C 
ATOM      8  N   ALA A   5       5.071   2.486  21.635  0.00  0.00    -0.303 N 
ATOM      9  H   ALA A   5       4.228   2.002  21.337  0.00  0.00    +0.149 HD
ATOM     10  O   SER A   4       7.332   2.766  21.415  0.00  0.00    -0.274 OA
BRANCH   8  11
ATOM     11  CA  ALA A   5       4.913   3.406  22.756  0.00  0.00    +0.156 C 
ATOM     12  CB  ALA A   5       3.570   4.123  22.718  0.00  0.00    +0.038 C 
BRANCH  11  13
ATOM     13  C   ALA A   5       5.029   2.571  24.042  0.00  0.00    +0.234 C 
ATOM     14  N   VAL A   6       4.903   3.282  25.210  0.00  0.00    -0.304 N 
ATOM     15  H   VAL A   6       4.678   4.273  25.183  0.00  0.00    +0.149 HD
ATOM     16  O   ALA A   5       5.205   1.351  24.015  0.00  0.00    -0.274 OA
BRANCH  14  17
ATOM     17  CA  VAL A   6       4.911   2.653  26.530  0.00  0.00    +0.138 C 
BRANCH  17  18
ATOM     18  CB  VAL A   6       5.635   3.508  27.592  0.00  0.00    +0.010 C 
ATOM     19  CG2 VAL A   6       6.355   4.711  26.973  0.00  0.00    +0.009 C 
ATOM     20  CG1 VAL A   6       6.659   2.680  28.381  0.00  0.00    +0.009 C 
ENDBRANCH  17  18
BRANCH  17  21
ATOM     21  C   VAL A   6       3.441   2.457  26.891  0.00  0.00    +0.245 C 
ATOM     22  O   VAL A   6       2.757   1.520  26.479  0.00  0.00    -0.299 OA
ENDBRANCH  17  21
ENDBRANCH  14  17
ENDBRANCH  11  13
ENDBRANCH   8  11
ENDBRANCH   6   7
BRANCH   6  23
ATOM     23  CB  SER A   4       5.081   1.305  19.040  0.00  0.00    +0.187 C 
BRANCH  23  24
ATOM     24  OG  SER A   4       5.500   1.665  17.723  0.00  0.00    -0.393 OA
ATOM     25  H   SER A   4       6.464   1.800  17.763  0.00  0.00    +0.209 HD
ENDBRANCH  23  24
ENDBRANCH   6  23
ENDBRANCH   4   6
ENDBRANCH   1   2
BRANCH   1  28
ATOM     26  C   PHE A   2       8.173  -1.992  24.163  0.00  0.00    +0.234 C 
ATOM     27  O   PHE A   2       9.193  -2.596  23.830  0.00  0.00    -0.274 OA
ATOM     28  N   GLN A   3       7.181  -1.677  23.264  0.00  0.00    -0.302 N 
ATOM     29  H   GLN A   3       6.318  -1.243  23.583  0.00  0.00    +0.150 HD
BRANCH  26  30
ATOM     30  CA  PHE A   2       7.939  -1.465  25.591  0.00  0.00    +0.163 C 
BRANCH  30  32
ATOM     31  C   THR A   1       6.374  -3.192  26.438  0.00  0.00    +0.233 C 
ATOM     32  N   PHE A   2       7.613  -2.596  26.453  0.00  0.00    -0.302 N 
ATOM     33  H   PHE A   2       8.379  -3.104  26.877  0.00  0.00    +0.150 HD
ATOM     34  O   THR A   1       5.436  -2.772  25.763  0.00  0.00    -0.274 OA
BRANCH  31  35
ATOM     35  CA  THR A   1       6.253  -4.394  27.392  0.00  0.00    +0.166 C 
BRANCH  35  36
ATOM     36  N   THR A   1       4.970  -4.287  28.135  0.00  0.00    -0.318 NA
ATOM     37  H1  THR A   1       4.264  -4.727  27.532  0.00  0.00    +0.119 HD
ATOM     38  H2  THR A   1       4.702  -3.301  28.158  0.00  0.00    +0.119 HD
ENDBRANCH  35  36
BRANCH  35  39
ATOM     39  CB  THR A   1       6.337  -5.725  26.614  0.00  0.00    +0.137 C 
ATOM     40  CG2 THR A   1       4.965  -6.376  26.479  0.00  0.00    +0.040 C 
BRANCH  39  41
ATOM     41  OG1 THR A   1       6.850  -5.462  25.297  0.00  0.00    -0.390 OA
ATOM     42  HG1 THR A   1       7.142  -4.533  25.284  0.00  0.00    +0.210 HD
ENDBRANCH  39  41
ENDBRANCH  35  39
ENDBRANCH  31  35
ENDBRANCH  30  32
BRANCH  30  43
ATOM     43  CB  PHE A   2       9.200  -0.731  26.071  0.00  0.00    +0.067 C 
BRANCH  43  44
ATOM     44  CG  PHE A   2       9.424   0.572  25.338  0.00  0.00    -0.045 A 
ATOM     45  CD2 PHE A   2      10.589   0.779  24.588  0.00  0.00    +0.004 A 
ATOM     46  CE2 PHE A   2      10.761   1.959  23.864  0.00  0.00    +0.000 A 
ATOM     47  CZ  PHE A   2       9.772   2.940  23.877  0.00  0.00    +0.000 A 
ATOM     48  CE1 PHE A   2       8.609   2.744  24.619  0.00  0.00    +0.000 A 
ATOM     49  CD1 PHE A   2       8.436   1.567  25.347  0.00  0.00    +0.004 A 
ENDBRANCH  43  44
ENDBRANCH  30  43
ENDBRANCH  26  30
ENDBRANCH   1  28
BRANCH   1  50
ATOM     50  CB  GLN A   3       5.911  -2.822  21.489  0.00  0.00    +0.041 C 
BRANCH  50  51
ATOM     51  CG  GLN A   3       5.598  -4.033  22.368  0.00  0.00    +0.098 C 
BRANCH  51  52
ATOM     52  CD  GLN A   3       5.884  -5.351  21.683  0.00  0.00    +0.211 C 
ATOM     53  NE2 GLN A   3       5.983  -6.443  22.489  0.00  0.00    -0.329 N 
ATOM     54 HE21 GLN A   3       6.184  -7.330  22.043  0.00  0.00    +0.145 HD
ATOM     55 HE22 GLN A   3       5.978  -6.404  23.497  0.00  0.00    +0.145 HD
ATOM     56  OE1 GLN A   3       5.964  -5.463  20.465  0.00  0.00    -0.276 OA
ENDBRANCH  51  52
ENDBRANCH  50  51
ENDBRANCH   1  50
TORSDOF 22
ENDMDL
