REMARK  Name = TLQAIA-mmff94.pdb
REMARK  28 active torsions:
REMARK  status: ('A' for Active; 'I' for Inactive)
REMARK    1  A    between atoms: _1  and  _2
REMARK    2  A    between atoms: _2  and  _3
REMARK    3  A    between atoms: _2  and  _5
REMARK    4  A    between atoms: _5  and  _6
REMARK    5  A    between atoms: _5  and  _7
REMARK    6  A    between atoms: _15  and  _16
REMARK    7  A    between atoms: _16  and  _17
REMARK    8  A    between atoms: _16  and  _19
REMARK    9  A    between atoms: _19  and  _20
REMARK   10  A    between atoms: _20  and  _21
REMARK   11  A    between atoms: _20  and  _22
REMARK   12  A    between atoms: _34  and  _35
REMARK   13  A    between atoms: _35  and  _36
REMARK   14  A    between atoms: _35  and  _38
REMARK   15  A    between atoms: _38  and  _39
REMARK   16  A    between atoms: _39  and  _40
REMARK   17  A    between atoms: _51  and  _52
REMARK   18  A    between atoms: _52  and  _53
REMARK   19  A    between atoms: _52  and  _55
REMARK   20  A    between atoms: _61  and  _62
REMARK   21  A    between atoms: _62  and  _63
REMARK   22  A    between atoms: _62  and  _65
REMARK   23  A    between atoms: _65  and  _66
REMARK   24  A    between atoms: _65  and  _67
REMARK   25  A    between atoms: _66  and  _68
REMARK   26  A    between atoms: _80  and  _81
REMARK   27  A    between atoms: _81  and  _82
REMARK   28  A    between atoms: _81  and  _84
REMARK                            x       y       z     vdW  Elec       q    Type
REMARK                         _______ _______ _______ _____ _____    ______ ____
ROOT
ATOM      1  CA  GLN A   3       6.244   2.970  -0.668  0.00  0.00    +0.159 C 
ENDROOT
BRANCH   1   2
ATOM      2  C   GLN A   3       7.758   2.693  -0.611  0.00  0.00    +0.234 C 
ATOM      3  N   ALA A   4       8.548   3.675  -1.150  0.00  0.00    -0.303 N 
ATOM      4  H   ALA A   4       8.141   4.468  -1.640  0.00  0.00    +0.149 HD
ATOM      5  O   GLN A   3       8.214   1.687  -0.069  0.00  0.00    -0.274 OA
BRANCH   3   6
ATOM      6  CA  ALA A   4      10.002   3.654  -1.057  0.00  0.00    +0.156 C 
ATOM      7  CB  ALA A   4      10.630   2.800  -2.148  0.00  0.00    +0.038 C 
BRANCH   6   8
ATOM      8  C   ALA A   4      10.481   5.108  -1.181  0.00  0.00    +0.234 C 
ATOM      9  O   ALA A   4       9.845   5.949  -1.815  0.00  0.00    -0.274 OA
ATOM     10  N   ILE A   5      11.657   5.385  -0.531  0.00  0.00    -0.302 N 
ATOM     11  H   ILE A   5      12.182   4.643  -0.076  0.00  0.00    +0.150 HD
BRANCH  10  12
ATOM     12  CA  ILE A   5      12.272   6.715  -0.512  0.00  0.00    +0.162 C 
BRANCH  12  13
ATOM     13  C   ILE A   5      13.790   6.425  -0.552  0.00  0.00    +0.234 C 
ATOM     14  N   ALA A   6      14.563   7.389  -1.149  0.00  0.00    -0.305 N 
ATOM     15  H   ALA A   6      14.141   8.249  -1.492  0.00  0.00    +0.149 HD
ATOM     16  O   ILE A   5      14.271   5.404  -0.057  0.00  0.00    -0.274 OA
BRANCH  14  17
ATOM     17  CA  ALA A   6      16.016   7.322  -1.160  0.00  0.00    +0.133 C 
ATOM     18  CB  ALA A   6      16.534   6.478  -2.314  0.00  0.00    +0.035 C 
BRANCH  17  19
ATOM     19  C   ALA A   6      16.560   8.739  -1.276  0.00  0.00    +0.245 C 
ATOM     20  O   ALA A   6      15.849   9.728  -1.452  0.00  0.00    -0.299 OA
ENDBRANCH  17  19
ENDBRANCH  14  17
ENDBRANCH  12  13
BRANCH  12  21
ATOM     21  CB  ILE A   5      11.875   7.527   0.758  0.00  0.00    +0.015 C 
ATOM     22  CG2 ILE A   5      12.517   8.922   0.750  0.00  0.00    +0.010 C 
BRANCH  21  23
ATOM     23  CG1 ILE A   5      10.337   7.635   0.907  0.00  0.00    +0.002 C 
ATOM     24  CD1 ILE A   5       9.870   8.385   2.149  0.00  0.00    +0.004 C 
ENDBRANCH  21  23
ENDBRANCH  12  21
ENDBRANCH  10  12
ENDBRANCH   6   8
ENDBRANCH   3   6
ENDBRANCH   1   2
BRANCH   1  27
ATOM     25  C   LEU A   2       4.295   1.496  -1.123  0.00  0.00    +0.234 C 
ATOM     26  O   LEU A   2       3.599   2.429  -1.526  0.00  0.00    -0.274 OA
ATOM     27  N   GLN A   3       5.590   1.663  -0.704  0.00  0.00    -0.302 N 
ATOM     28  H   GLN A   3       6.120   0.879  -0.331  0.00  0.00    +0.150 HD
BRANCH  25  29
ATOM     29  CA  LEU A   2       3.779   0.042  -1.092  0.00  0.00    +0.159 C 
BRANCH  29  32
ATOM     30  C   THR A   1       1.474  -0.571  -0.392  0.00  0.00    +0.233 C 
ATOM     31  O   THR A   1       1.855  -1.414   0.418  0.00  0.00    -0.274 OA
ATOM     32  N   LEU A   2       2.326   0.117  -1.220  0.00  0.00    -0.303 N 
ATOM     33  H   LEU A   2       1.975   0.920  -1.737  0.00  0.00    +0.149 HD
BRANCH  30  34
ATOM     34  CA  THR A   1      -0.013  -0.237  -0.584  0.00  0.00    +0.166 C 
BRANCH  34  35
ATOM     35  N   THR A   1      -0.783  -1.506  -0.740  0.00  0.00    -0.318 NA
ATOM     36  H1  THR A   1      -0.416  -1.998  -1.557  0.00  0.00    +0.119 HD
ATOM     37  H2  THR A   1      -0.521  -2.110   0.049  0.00  0.00    +0.119 HD
ENDBRANCH  34  35
BRANCH  34  38
ATOM     38  CB  THR A   1      -0.548   0.532   0.639  0.00  0.00    +0.137 C 
ATOM     39  CG2 THR A   1       0.027   1.937   0.753  0.00  0.00    +0.040 C 
BRANCH  38  40
ATOM     40  OG1 THR A   1      -1.974   0.644   0.526  0.00  0.00    -0.390 OA
ATOM     41  HG1 THR A   1      -2.256  -0.206   0.129  0.00  0.00    +0.210 HD
ENDBRANCH  38  40
ENDBRANCH  34  38
ENDBRANCH  30  34
ENDBRANCH  29  32
BRANCH  29  42
ATOM     42  CB  LEU A   2       4.408  -0.754  -2.245  0.00  0.00    +0.034 C 
BRANCH  42  43
ATOM     43  CG  LEU A   2       4.054  -2.254  -2.265  0.00  0.00    -0.015 C 
ATOM     44  CD2 LEU A   2       4.645  -3.003  -1.069  0.00  0.00    +0.007 C 
ATOM     45  CD1 LEU A   2       4.561  -2.887  -3.564  0.00  0.00    +0.007 C 
ENDBRANCH  42  43
ENDBRANCH  29  42
ENDBRANCH  25  29
ENDBRANCH   1  27
BRANCH   1  46
ATOM     46  CB  GLN A   3       5.780   3.769   0.560  0.00  0.00    +0.041 C 
BRANCH  46  47
ATOM     47  CG  GLN A   3       6.387   5.168   0.649  0.00  0.00    +0.098 C 
BRANCH  47  48
ATOM     48  CD  GLN A   3       5.646   6.082   1.601  0.00  0.00    +0.211 C 
ATOM     49  NE2 GLN A   3       5.389   5.589   2.843  0.00  0.00    -0.329 N 
ATOM     50 HE21 GLN A   3       4.886   6.190   3.483  0.00  0.00    +0.145 HD
ATOM     51 HE22 GLN A   3       5.574   4.638   3.124  0.00  0.00    +0.145 HD
ATOM     52  OE1 GLN A   3       5.344   7.235   1.313  0.00  0.00    -0.276 OA
ENDBRANCH  47  48
ENDBRANCH  46  47
ENDBRANCH   1  46
TORSDOF 21
