REMARK  Name = TLQAEN-mmff94.pdb
REMARK  29 active torsions:
REMARK  status: ('A' for Active; 'I' for Inactive)
REMARK    1  A    between atoms: _1  and  _2
REMARK    2  A    between atoms: _2  and  _3
REMARK    3  A    between atoms: _2  and  _5
REMARK    4  A    between atoms: _5  and  _6
REMARK    5  A    between atoms: _5  and  _7
REMARK    6  A    between atoms: _15  and  _16
REMARK    7  A    between atoms: _16  and  _17
REMARK    8  A    between atoms: _16  and  _19
REMARK    9  A    between atoms: _19  and  _20
REMARK   10  A    between atoms: _20  and  _21
REMARK   11  A    between atoms: _20  and  _22
REMARK   12  A    between atoms: _34  and  _35
REMARK   13  A    between atoms: _35  and  _36
REMARK   14  A    between atoms: _35  and  _38
REMARK   15  A    between atoms: _38  and  _39
REMARK   16  A    between atoms: _39  and  _40
REMARK   17  A    between atoms: _51  and  _52
REMARK   18  A    between atoms: _52  and  _53
REMARK   19  A    between atoms: _52  and  _55
REMARK   20  A    between atoms: _61  and  _62
REMARK   21  A    between atoms: _62  and  _63
REMARK   22  A    between atoms: _62  and  _65
REMARK   23  A    between atoms: _65  and  _66
REMARK   24  A    between atoms: _66  and  _67
REMARK   25  A    between atoms: _67  and  _68
REMARK   26  A    between atoms: _76  and  _77
REMARK   27  A    between atoms: _77  and  _78
REMARK   28  A    between atoms: _77  and  _80
REMARK   29  A    between atoms: _80  and  _81
REMARK                            x       y       z     vdW  Elec       q    Type
REMARK                         _______ _______ _______ _____ _____    ______ ____
ROOT
ATOM      1  C   GLN A   3       7.753   2.726  -0.539  0.00  0.00    +0.234 C 
ATOM      2  O   GLN A   3       8.214   1.673  -0.099  0.00  0.00    -0.274 OA
ATOM      3  N   ALA A   4       8.542   3.750  -0.995  0.00  0.00    -0.303 N 
ATOM      4  H   ALA A   4       8.132   4.603  -1.368  0.00  0.00    +0.149 HD
ENDROOT
BRANCH   3   5
ATOM      5  CA  ALA A   4       9.997   3.707  -0.940  0.00  0.00    +0.156 C 
ATOM      6  CB  ALA A   4      10.576   2.983  -2.148  0.00  0.00    +0.038 C 
BRANCH   5   7
ATOM      7  C   ALA A   4      10.501   5.160  -0.885  0.00  0.00    +0.234 C 
ATOM      8  O   ALA A   4       9.774   6.120  -1.142  0.00  0.00    -0.274 OA
ATOM      9  N   GLU A   5      11.823   5.306  -0.542  0.00  0.00    -0.302 N 
ATOM     10  H   GLU A   5      12.377   4.502  -0.260  0.00  0.00    +0.150 HD
BRANCH   9  11
ATOM     11  CA  GLU A   5      12.465   6.615  -0.473  0.00  0.00    +0.159 C 
BRANCH  11  12
ATOM     12  C   GLU A   5      13.981   6.351  -0.517  0.00  0.00    +0.234 C 
ATOM     13  N   ASN A   6      14.739   7.339  -1.088  0.00  0.00    -0.304 N 
ATOM     14  H   ASN A   6      14.306   8.191  -1.439  0.00  0.00    +0.149 HD
ATOM     15  O   GLU A   5      14.484   5.329  -0.046  0.00  0.00    -0.274 OA
BRANCH  13  16
ATOM     16  CA  ASN A   6      16.198   7.288  -1.141  0.00  0.00    +0.145 C 
BRANCH  16  17
ATOM     17  C   ASN A   6      16.684   8.729  -1.077  0.00  0.00    +0.245 C 
ATOM     18  O   ASN A   6      15.957   9.694  -1.306  0.00  0.00    -0.299 OA
ENDBRANCH  16  17
BRANCH  16  19
ATOM     19  CB  ASN A   6      16.734   6.659  -2.419  0.00  0.00    +0.125 C 
BRANCH  19  20
ATOM     20  CG  ASN A   6      16.451   5.188  -2.625  0.00  0.00    +0.213 C 
ATOM     21  ND2 ASN A   6      16.579   4.360  -1.553  0.00  0.00    -0.329 N 
ATOM     22 HD21 ASN A   6      16.161   4.659  -0.673  0.00  0.00    +0.145 HD
ATOM     23 HD22 ASN A   6      16.341   3.398  -1.770  0.00  0.00    +0.145 HD
ATOM     24  OD1 ASN A   6      16.221   4.719  -3.737  0.00  0.00    -0.276 OA
ENDBRANCH  19  20
ENDBRANCH  16  19
ENDBRANCH  13  16
ENDBRANCH  11  12
BRANCH  11  25
ATOM     25  CB  GLU A   5      12.081   7.349   0.818  0.00  0.00    +0.038 C 
BRANCH  25  26
ATOM     26  CG  GLU A   5      12.217   8.863   0.698  0.00  0.00    +0.059 C 
BRANCH  26  27
ATOM     27  CD  GLU A   5      11.984   9.509   2.038  0.00  0.00    +0.023 C 
ATOM     28  OE1 GLU A   5      12.885   9.814   2.804  0.00  0.00    -0.851 OA
BRANCH  27  29
ATOM     29  OE2 GLU A   5      10.680   9.679   2.340  0.00  0.00    -0.526 OA
ATOM     30  HE2 GLU A   5      10.053   9.376   1.654  0.00  0.00    +0.290 HD
ENDBRANCH  27  29
ENDBRANCH  26  27
ENDBRANCH  25  26
ENDBRANCH  11  25
ENDBRANCH   9  11
ENDBRANCH   5   7
ENDBRANCH   3   5
BRANCH   1  31
ATOM     31  CA  GLN A   3       6.238   3.004  -0.566  0.00  0.00    +0.159 C 
BRANCH  31  34
ATOM     32  C   LEU A   2       4.289   1.533  -1.048  0.00  0.00    +0.234 C 
ATOM     33  O   LEU A   2       3.588   2.475  -1.419  0.00  0.00    -0.274 OA
ATOM     34  N   GLN A   3       5.584   1.698  -0.626  0.00  0.00    -0.302 N 
ATOM     35  H   GLN A   3       6.130   0.901  -0.302  0.00  0.00    +0.150 HD
BRANCH  32  36
ATOM     36  CA  LEU A   2       3.781   0.076  -1.052  0.00  0.00    +0.159 C 
BRANCH  36  39
ATOM     37  C   THR A   1       1.473  -0.560  -0.382  0.00  0.00    +0.233 C 
ATOM     38  O   THR A   1       1.851  -1.409   0.421  0.00  0.00    -0.274 OA
ATOM     39  N   LEU A   2       2.329   0.146  -1.192  0.00  0.00    -0.303 N 
ATOM     40  H   LEU A   2       1.977   0.951  -1.705  0.00  0.00    +0.149 HD
BRANCH  37  41
ATOM     41  CA  THR A   1      -0.014  -0.231  -0.586  0.00  0.00    +0.166 C 
BRANCH  41  42
ATOM     42  N   THR A   1      -0.777  -1.501  -0.761  0.00  0.00    -0.318 NA
ATOM     43  H1  THR A   1      -0.402  -1.983  -1.580  0.00  0.00    +0.119 HD
ATOM     44  H2  THR A   1      -0.522  -2.111   0.024  0.00  0.00    +0.119 HD
ENDBRANCH  41  42
BRANCH  41  45
ATOM     45  CB  THR A   1      -0.562   0.525   0.640  0.00  0.00    +0.137 C 
ATOM     46  CG2 THR A   1       0.014   1.927   0.778  0.00  0.00    +0.040 C 
BRANCH  45  47
ATOM     47  OG1 THR A   1      -1.986   0.643   0.510  0.00  0.00    -0.390 OA
ATOM     48  HG1 THR A   1      -2.267  -0.205   0.104  0.00  0.00    +0.210 HD
ENDBRANCH  45  47
ENDBRANCH  41  45
ENDBRANCH  37  41
ENDBRANCH  36  39
BRANCH  36  49
ATOM     49  CB  LEU A   2       4.424  -0.700  -2.211  0.00  0.00    +0.034 C 
BRANCH  49  50
ATOM     50  CG  LEU A   2       4.073  -2.201  -2.258  0.00  0.00    -0.015 C 
ATOM     51  CD2 LEU A   2       4.654  -2.968  -1.069  0.00  0.00    +0.007 C 
ATOM     52  CD1 LEU A   2       4.592  -2.813  -3.563  0.00  0.00    +0.007 C 
ENDBRANCH  49  50
ENDBRANCH  36  49
ENDBRANCH  32  36
ENDBRANCH  31  34
BRANCH  31  53
ATOM     53  CB  GLN A   3       5.779   3.777   0.681  0.00  0.00    +0.041 C 
BRANCH  53  54
ATOM     54  CG  GLN A   3       6.381   5.177   0.792  0.00  0.00    +0.098 C 
BRANCH  54  55
ATOM     55  CD  GLN A   3       5.687   6.102   1.771  0.00  0.00    +0.211 C 
ATOM     56  NE2 GLN A   3       5.175   5.550   2.903  0.00  0.00    -0.329 N 
ATOM     57 HE21 GLN A   3       4.695   6.177   3.537  0.00  0.00    +0.145 HD
ATOM     58 HE22 GLN A   3       5.040   4.558   3.037  0.00  0.00    +0.145 HD
ATOM     59  OE1 GLN A   3       5.666   7.319   1.612  0.00  0.00    -0.276 OA
ENDBRANCH  54  55
ENDBRANCH  53  54
ENDBRANCH  31  53
ENDBRANCH   1  31
TORSDOF 25
