MODEL 1
REMARK VINA RESULT:      -6.7      0.000      0.000
REMARK  Name = TLQAIA-mmff94.pdb
REMARK  28 active torsions:
REMARK  status: ('A' for Active; 'I' for Inactive)
REMARK    1  A    between atoms: _1  and  _2
REMARK    2  A    between atoms: _2  and  _3
REMARK    3  A    between atoms: _2  and  _5
REMARK    4  A    between atoms: _5  and  _6
REMARK    5  A    between atoms: _5  and  _7
REMARK    6  A    between atoms: _15  and  _16
REMARK    7  A    between atoms: _16  and  _17
REMARK    8  A    between atoms: _16  and  _19
REMARK    9  A    between atoms: _19  and  _20
REMARK   10  A    between atoms: _20  and  _21
REMARK   11  A    between atoms: _20  and  _22
REMARK   12  A    between atoms: _34  and  _35
REMARK   13  A    between atoms: _35  and  _36
REMARK   14  A    between atoms: _35  and  _38
REMARK   15  A    between atoms: _38  and  _39
REMARK   16  A    between atoms: _39  and  _40
REMARK   17  A    between atoms: _51  and  _52
REMARK   18  A    between atoms: _52  and  _53
REMARK   19  A    between atoms: _52  and  _55
REMARK   20  A    between atoms: _61  and  _62
REMARK   21  A    between atoms: _62  and  _63
REMARK   22  A    between atoms: _62  and  _65
REMARK   23  A    between atoms: _65  and  _66
REMARK   24  A    between atoms: _65  and  _67
REMARK   25  A    between atoms: _66  and  _68
REMARK   26  A    between atoms: _80  and  _81
REMARK   27  A    between atoms: _81  and  _82
REMARK   28  A    between atoms: _81  and  _84
REMARK                            x       y       z     vdW  Elec       q    Type
REMARK                         _______ _______ _______ _____ _____    ______ ____
ROOT
ATOM      1  CA  GLN A   3       7.009  -2.105  25.901  0.00  0.00    +0.159 C 
ENDROOT
BRANCH   1   2
ATOM      2  C   GLN A   3       6.868  -0.572  25.947  0.00  0.00    +0.234 C 
ATOM      3  N   ALA A   4       5.580  -0.110  26.019  0.00  0.00    -0.303 N 
ATOM      4  H   ALA A   4       4.788  -0.743  25.939  0.00  0.00    +0.149 HD
ATOM      5  O   GLN A   3       7.850   0.170  25.974  0.00  0.00    -0.274 OA
BRANCH   3   6
ATOM      6  CA  ALA A   4       5.260   1.298  26.215  0.00  0.00    +0.156 C 
ATOM      7  CB  ALA A   4       6.223   1.973  27.179  0.00  0.00    +0.038 C 
BRANCH   6   8
ATOM      8  C   ALA A   4       5.332   1.971  24.836  0.00  0.00    +0.234 C 
ATOM      9  O   ALA A   4       4.321   2.212  24.178  0.00  0.00    -0.274 OA
ATOM     10  N   ILE A   5       6.599   2.280  24.412  0.00  0.00    -0.302 N 
ATOM     11  H   ILE A   5       7.409   2.002  24.959  0.00  0.00    +0.150 HD
BRANCH  10  12
ATOM     12  CA  ILE A   5       6.881   2.942  23.135  0.00  0.00    +0.162 C 
BRANCH  12  13
ATOM     13  C   ILE A   5       8.142   2.218  22.609  0.00  0.00    +0.234 C 
ATOM     14  N   ALA A   6       8.895   1.574  23.558  0.00  0.00    -0.305 N 
ATOM     15  H   ALA A   6       8.593   1.553  24.529  0.00  0.00    +0.149 HD
ATOM     16  O   ILE A   5       8.432   2.203  21.411  0.00  0.00    -0.274 OA
BRANCH  14  17
ATOM     17  CA  ALA A   6      10.042   0.748  23.210  0.00  0.00    +0.133 C 
ATOM     18  CB  ALA A   6      11.087   0.739  24.314  0.00  0.00    +0.035 C 
BRANCH  17  19
ATOM     19  C   ALA A   6       9.551  -0.670  22.955  0.00  0.00    +0.245 C 
ATOM     20  O   ALA A   6       9.351  -1.129  21.831  0.00  0.00    -0.299 OA
ENDBRANCH  17  19
ENDBRANCH  14  17
ENDBRANCH  12  13
BRANCH  12  21
ATOM     21  CB  ILE A   5       7.127   4.471  23.308  0.00  0.00    +0.015 C 
ATOM     22  CG2 ILE A   5       5.840   5.273  23.067  0.00  0.00    +0.010 C 
BRANCH  21  23
ATOM     23  CG1 ILE A   5       7.721   4.798  24.701  0.00  0.00    +0.002 C 
ATOM     24  CD1 ILE A   5       9.161   5.297  24.677  0.00  0.00    +0.004 C 
ENDBRANCH  21  23
ENDBRANCH  12  21
ENDBRANCH  10  12
ENDBRANCH   6   8
ENDBRANCH   3   6
ENDBRANCH   1   2
BRANCH   1  27
ATOM     25  C   LEU A   2       5.827  -2.711  23.800  0.00  0.00    +0.234 C 
ATOM     26  O   LEU A   2       4.714  -2.600  24.316  0.00  0.00    -0.274 OA
ATOM     27  N   GLN A   3       6.990  -2.475  24.487  0.00  0.00    -0.302 N 
ATOM     28  H   GLN A   3       7.894  -2.624  24.044  0.00  0.00    +0.150 HD
BRANCH  25  29
ATOM     29  CA  LEU A   2       6.009  -3.089  22.315  0.00  0.00    +0.159 C 
BRANCH  29  32
ATOM     30  C   THR A   1       5.996  -1.620  20.310  0.00  0.00    +0.233 C 
ATOM     31  O   THR A   1       5.495  -2.476  19.583  0.00  0.00    -0.274 OA
ATOM     32  N   LEU A   2       6.353  -1.854  21.614  0.00  0.00    -0.303 N 
ATOM     33  H   LEU A   2       6.595  -1.067  22.212  0.00  0.00    +0.149 HD
BRANCH  30  34
ATOM     34  CA  THR A   1       6.311  -0.203  19.805  0.00  0.00    +0.166 C 
BRANCH  34  35
ATOM     35  N   THR A   1       7.779  -0.084  19.567  0.00  0.00    -0.318 NA
ATOM     36  H1  THR A   1       8.192   0.384  20.376  0.00  0.00    +0.119 HD
ATOM     37  H2  THR A   1       8.164  -1.036  19.612  0.00  0.00    +0.119 HD
ENDBRANCH  34  35
BRANCH  34  38
ATOM     38  CB  THR A   1       5.561   0.071  18.487  0.00  0.00    +0.137 C 
ATOM     39  CG2 THR A   1       5.869   1.444  17.906  0.00  0.00    +0.040 C 
BRANCH  38  40
ATOM     40  OG1 THR A   1       5.949  -0.917  17.522  0.00  0.00    -0.390 OA
ATOM     41  HG1 THR A   1       5.289  -0.830  16.803  0.00  0.00    +0.210 HD
ENDBRANCH  38  40
ENDBRANCH  34  38
ENDBRANCH  30  34
ENDBRANCH  29  32
BRANCH  29  42
ATOM     42  CB  LEU A   2       7.117  -4.143  22.182  0.00  0.00    +0.034 C 
BRANCH  42  43
ATOM     43  CG  LEU A   2       6.617  -5.587  21.980  0.00  0.00    -0.015 C 
ATOM     44  CD2 LEU A   2       6.101  -5.826  20.560  0.00  0.00    +0.007 C 
ATOM     45  CD1 LEU A   2       5.503  -5.893  22.985  0.00  0.00    +0.007 C 
ENDBRANCH  42  43
ENDBRANCH  29  42
ENDBRANCH  25  29
ENDBRANCH   1  27
BRANCH   1  46
ATOM     46  CB  GLN A   3       8.321  -2.561  26.558  0.00  0.00    +0.041 C 
BRANCH  46  47
ATOM     47  CG  GLN A   3       8.540  -4.072  26.511  0.00  0.00    +0.098 C 
BRANCH  47  48
ATOM     48  CD  GLN A   3       9.550  -4.498  25.467  0.00  0.00    +0.211 C 
ATOM     49  NE2 GLN A   3      10.162  -5.697  25.664  0.00  0.00    -0.329 N 
ATOM     50 HE21 GLN A   3      10.845  -5.985  24.975  0.00  0.00    +0.145 HD
ATOM     51 HE22 GLN A   3      10.054  -6.258  26.495  0.00  0.00    +0.145 HD
ATOM     52  OE1 GLN A   3       9.771  -3.844  24.453  0.00  0.00    -0.276 OA
ENDBRANCH  47  48
ENDBRANCH  46  47
ENDBRANCH   1  46
TORSDOF 21
ENDMDL
MODEL 2
REMARK VINA RESULT:      -6.7      2.410      6.130
REMARK  Name = TLQAIA-mmff94.pdb
REMARK  28 active torsions:
REMARK  status: ('A' for Active; 'I' for Inactive)
REMARK    1  A    between atoms: _1  and  _2
REMARK    2  A    between atoms: _2  and  _3
REMARK    3  A    between atoms: _2  and  _5
REMARK    4  A    between atoms: _5  and  _6
REMARK    5  A    between atoms: _5  and  _7
REMARK    6  A    between atoms: _15  and  _16
REMARK    7  A    between atoms: _16  and  _17
REMARK    8  A    between atoms: _16  and  _19
REMARK    9  A    between atoms: _19  and  _20
REMARK   10  A    between atoms: _20  and  _21
REMARK   11  A    between atoms: _20  and  _22
REMARK   12  A    between atoms: _34  and  _35
REMARK   13  A    between atoms: _35  and  _36
REMARK   14  A    between atoms: _35  and  _38
REMARK   15  A    between atoms: _38  and  _39
REMARK   16  A    between atoms: _39  and  _40
REMARK   17  A    between atoms: _51  and  _52
REMARK   18  A    between atoms: _52  and  _53
REMARK   19  A    between atoms: _52  and  _55
REMARK   20  A    between atoms: _61  and  _62
REMARK   21  A    between atoms: _62  and  _63
REMARK   22  A    between atoms: _62  and  _65
REMARK   23  A    between atoms: _65  and  _66
REMARK   24  A    between atoms: _65  and  _67
REMARK   25  A    between atoms: _66  and  _68
REMARK   26  A    between atoms: _80  and  _81
REMARK   27  A    between atoms: _81  and  _82
REMARK   28  A    between atoms: _81  and  _84
REMARK                            x       y       z     vdW  Elec       q    Type
REMARK                         _______ _______ _______ _____ _____    ______ ____
ROOT
ATOM      1  CA  GLN A   3       7.707  -3.210  22.741  0.00  0.00    +0.159 C 
ENDROOT
BRANCH   1   2
ATOM      2  C   GLN A   3       6.223  -3.511  22.461  0.00  0.00    +0.234 C 
ATOM      3  N   ALA A   4       5.498  -3.919  23.551  0.00  0.00    -0.303 N 
ATOM      4  H   ALA A   4       5.950  -4.105  24.444  0.00  0.00    +0.149 HD
ATOM      5  O   GLN A   3       5.723  -3.340  21.350  0.00  0.00    -0.274 OA
BRANCH   3   6
ATOM      6  CA  ALA A   4       4.054  -4.109  23.510  0.00  0.00    +0.156 C 
ATOM      7  CB  ALA A   4       3.678  -5.557  23.231  0.00  0.00    +0.038 C 
BRANCH   6   8
ATOM      8  C   ALA A   4       3.504  -3.673  24.876  0.00  0.00    +0.234 C 
ATOM      9  O   ALA A   4       2.345  -3.285  25.015  0.00  0.00    -0.274 OA
ATOM     10  N   ILE A   5       4.401  -3.755  25.911  0.00  0.00    -0.302 N 
ATOM     11  H   ILE A   5       5.367  -4.017  25.737  0.00  0.00    +0.150 HD
BRANCH  10  12
ATOM     12  CA  ILE A   5       4.067  -3.403  27.294  0.00  0.00    +0.162 C 
BRANCH  12  13
ATOM     13  C   ILE A   5       4.641  -1.978  27.466  0.00  0.00    +0.234 C 
ATOM     14  N   ALA A   6       5.833  -1.738  26.829  0.00  0.00    -0.305 N 
ATOM     15  H   ALA A   6       6.263  -2.456  26.251  0.00  0.00    +0.149 HD
ATOM     16  O   ILE A   5       4.050  -1.112  28.113  0.00  0.00    -0.274 OA
BRANCH  14  17
ATOM     17  CA  ALA A   6       6.442  -0.417  26.794  0.00  0.00    +0.133 C 
ATOM     18  CB  ALA A   6       7.955  -0.488  26.929  0.00  0.00    +0.035 C 
BRANCH  17  19
ATOM     19  C   ALA A   6       6.074   0.245  25.473  0.00  0.00    +0.245 C 
ATOM     20  O   ALA A   6       6.188  -0.310  24.380  0.00  0.00    -0.299 OA
ENDBRANCH  17  19
ENDBRANCH  14  17
ENDBRANCH  12  13
BRANCH  12  21
ATOM     21  CB  ILE A   5       4.688  -4.400  28.319  0.00  0.00    +0.015 C 
ATOM     22  CG2 ILE A   5       4.201  -4.107  29.746  0.00  0.00    +0.010 C 
BRANCH  21  23
ATOM     23  CG1 ILE A   5       4.393  -5.871  27.933  0.00  0.00    +0.002 C 
ATOM     24  CD1 ILE A   5       5.297  -6.898  28.604  0.00  0.00    +0.004 C 
ENDBRANCH  21  23
ENDBRANCH  12  21
ENDBRANCH  10  12
ENDBRANCH   6   8
ENDBRANCH   3   6
ENDBRANCH   1   2
BRANCH   1  27
ATOM     25  C   LEU A   2       9.256  -1.437  21.945  0.00  0.00    +0.234 C 
ATOM     26  O   LEU A   2      10.259  -2.083  22.252  0.00  0.00    -0.274 OA
ATOM     27  N   GLN A   3       7.983  -1.911  22.130  0.00  0.00    -0.302 N 
ATOM     28  H   GLN A   3       7.177  -1.331  21.911  0.00  0.00    +0.150 HD
BRANCH  25  29
ATOM     29  CA  LEU A   2       9.348  -0.046  21.283  0.00  0.00    +0.159 C 
BRANCH  29  32
ATOM     30  C   THR A   1       7.416   0.185  19.736  0.00  0.00    +0.233 C 
ATOM     31  O   THR A   1       8.057  -0.177  18.750  0.00  0.00    -0.274 OA
ATOM     32  N   LEU A   2       7.977   0.356  20.977  0.00  0.00    -0.303 N 
ATOM     33  H   LEU A   2       7.370   0.482  21.783  0.00  0.00    +0.149 HD
BRANCH  30  34
ATOM     34  CA  THR A   1       5.920   0.523  19.658  0.00  0.00    +0.166 C 
BRANCH  34  35
ATOM     35  N   THR A   1       5.690   1.867  20.264  0.00  0.00    -0.318 NA
ATOM     36  H1  THR A   1       5.673   2.554  19.508  0.00  0.00    +0.119 HD
ATOM     37  H2  THR A   1       4.727   1.869  20.621  0.00  0.00    +0.119 HD
ENDBRANCH  34  35
BRANCH  34  38
ATOM     38  CB  THR A   1       5.455   0.544  18.189  0.00  0.00    +0.137 C 
ATOM     39  CG2 THR A   1       6.201   1.569  17.347  0.00  0.00    +0.040 C 
BRANCH  38  40
ATOM     40  OG1 THR A   1       5.680  -0.751  17.615  0.00  0.00    -0.390 OA
ATOM     41  HG1 THR A   1       6.381  -0.604  16.946  0.00  0.00    +0.210 HD
ENDBRANCH  38  40
ENDBRANCH  34  38
ENDBRANCH  30  34
ENDBRANCH  29  32
BRANCH  29  42
ATOM     42  CB  LEU A   2      10.025   0.940  22.246  0.00  0.00    +0.034 C 
BRANCH  42  43
ATOM     43  CG  LEU A   2       9.501   0.893  23.695  0.00  0.00    -0.015 C 
ATOM     44  CD2 LEU A   2       8.849   2.211  24.117  0.00  0.00    +0.007 C 
ATOM     45  CD1 LEU A   2      10.653   0.566  24.650  0.00  0.00    +0.007 C 
ENDBRANCH  42  43
ENDBRANCH  29  42
ENDBRANCH  25  29
ENDBRANCH   1  27
BRANCH   1  46
ATOM     46  CB  GLN A   3       7.989  -3.165  24.251  0.00  0.00    +0.041 C 
BRANCH  46  47
ATOM     47  CG  GLN A   3       8.743  -4.387  24.773  0.00  0.00    +0.098 C 
BRANCH  47  48
ATOM     48  CD  GLN A   3       7.909  -5.258  25.687  0.00  0.00    +0.211 C 
ATOM     49  NE2 GLN A   3       8.477  -5.619  26.870  0.00  0.00    -0.329 N 
ATOM     50 HE21 GLN A   3       7.930  -6.209  27.484  0.00  0.00    +0.145 HD
ATOM     51 HE22 GLN A   3       9.434  -5.423  27.121  0.00  0.00    +0.145 HD
ATOM     52  OE1 GLN A   3       6.754  -5.578  25.427  0.00  0.00    -0.276 OA
ENDBRANCH  47  48
ENDBRANCH  46  47
ENDBRANCH   1  46
TORSDOF 21
ENDMDL
MODEL 3
REMARK VINA RESULT:      -6.5      1.825      5.928
REMARK  Name = TLQAIA-mmff94.pdb
REMARK  28 active torsions:
REMARK  status: ('A' for Active; 'I' for Inactive)
REMARK    1  A    between atoms: _1  and  _2
REMARK    2  A    between atoms: _2  and  _3
REMARK    3  A    between atoms: _2  and  _5
REMARK    4  A    between atoms: _5  and  _6
REMARK    5  A    between atoms: _5  and  _7
REMARK    6  A    between atoms: _15  and  _16
REMARK    7  A    between atoms: _16  and  _17
REMARK    8  A    between atoms: _16  and  _19
REMARK    9  A    between atoms: _19  and  _20
REMARK   10  A    between atoms: _20  and  _21
REMARK   11  A    between atoms: _20  and  _22
REMARK   12  A    between atoms: _34  and  _35
REMARK   13  A    between atoms: _35  and  _36
REMARK   14  A    between atoms: _35  and  _38
REMARK   15  A    between atoms: _38  and  _39
REMARK   16  A    between atoms: _39  and  _40
REMARK   17  A    between atoms: _51  and  _52
REMARK   18  A    between atoms: _52  and  _53
REMARK   19  A    between atoms: _52  and  _55
REMARK   20  A    between atoms: _61  and  _62
REMARK   21  A    between atoms: _62  and  _63
REMARK   22  A    between atoms: _62  and  _65
REMARK   23  A    between atoms: _65  and  _66
REMARK   24  A    between atoms: _65  and  _67
REMARK   25  A    between atoms: _66  and  _68
REMARK   26  A    between atoms: _80  and  _81
REMARK   27  A    between atoms: _81  and  _82
REMARK   28  A    between atoms: _81  and  _84
REMARK                            x       y       z     vdW  Elec       q    Type
REMARK                         _______ _______ _______ _____ _____    ______ ____
ROOT
ATOM      1  CA  GLN A   3       9.001  -0.425  21.005  0.00  0.00    +0.159 C 
ENDROOT
BRANCH   1   2
ATOM      2  C   GLN A   3       9.779   0.195  22.181  0.00  0.00    +0.234 C 
ATOM      3  N   ALA A   4       9.311   1.410  22.610  0.00  0.00    -0.303 N 
ATOM      4  H   ALA A   4       8.573   1.897  22.107  0.00  0.00    +0.149 HD
ATOM      5  O   GLN A   3      10.714  -0.393  22.723  0.00  0.00    -0.274 OA
BRANCH   3   6
ATOM      6  CA  ALA A   4       9.828   2.078  23.798  0.00  0.00    +0.156 C 
ATOM      7  CB  ALA A   4      10.740   3.243  23.445  0.00  0.00    +0.038 C 
BRANCH   6   8
ATOM      8  C   ALA A   4       8.615   2.577  24.596  0.00  0.00    +0.234 C 
ATOM      9  O   ALA A   4       8.581   3.705  25.087  0.00  0.00    -0.274 OA
ATOM     10  N   ILE A   5       7.587   1.675  24.708  0.00  0.00    -0.302 N 
ATOM     11  H   ILE A   5       7.687   0.731  24.343  0.00  0.00    +0.150 HD
BRANCH  10  12
ATOM     12  CA  ILE A   5       6.336   1.964  25.413  0.00  0.00    +0.162 C 
BRANCH  12  13
ATOM     13  C   ILE A   5       6.099   0.708  26.283  0.00  0.00    +0.234 C 
ATOM     14  N   ALA A   6       4.792   0.306  26.402  0.00  0.00    -0.305 N 
ATOM     15  H   ALA A   6       4.054   0.796  25.900  0.00  0.00    +0.149 HD
ATOM     16  O   ILE A   5       7.029   0.098  26.814  0.00  0.00    -0.274 OA
BRANCH  14  17
ATOM     17  CA  ALA A   6       4.416  -0.922  27.085  0.00  0.00    +0.133 C 
ATOM     18  CB  ALA A   6       3.198  -0.724  27.973  0.00  0.00    +0.035 C 
BRANCH  17  19
ATOM     19  C   ALA A   6       4.119  -1.982  26.034  0.00  0.00    +0.245 C 
ATOM     20  O   ALA A   6       4.991  -2.576  25.401  0.00  0.00    -0.299 OA
ENDBRANCH  17  19
ENDBRANCH  14  17
ENDBRANCH  12  13
BRANCH  12  21
ATOM     21  CB  ILE A   5       5.153   2.214  24.430  0.00  0.00    +0.015 C 
ATOM     22  CG2 ILE A   5       4.344   3.455  24.836  0.00  0.00    +0.010 C 
BRANCH  21  23
ATOM     23  CG1 ILE A   5       5.645   2.339  22.967  0.00  0.00    +0.002 C 
ATOM     24  CD1 ILE A   5       5.773   3.770  22.459  0.00  0.00    +0.004 C 
ENDBRANCH  21  23
ENDBRANCH  12  21
ENDBRANCH  10  12
ENDBRANCH   6   8
ENDBRANCH   3   6
ENDBRANCH   1   2
BRANCH   1  27
ATOM     25  C   LEU A   2       7.688  -1.957  22.457  0.00  0.00    +0.234 C 
ATOM     26  O   LEU A   2       7.138  -1.029  23.052  0.00  0.00    -0.274 OA
ATOM     27  N   GLN A   3       8.590  -1.757  21.444  0.00  0.00    -0.302 N 
ATOM     28  H   GLN A   3       9.063  -2.545  21.008  0.00  0.00    +0.150 HD
BRANCH  25  29
ATOM     29  CA  LEU A   2       7.378  -3.434  22.777  0.00  0.00    +0.159 C 
BRANCH  29  32
ATOM     30  C   THR A   1       8.685  -3.708  24.874  0.00  0.00    +0.233 C 
ATOM     31  O   THR A   1       9.752  -3.874  24.285  0.00  0.00    -0.274 OA
ATOM     32  N   LEU A   2       7.481  -3.572  24.227  0.00  0.00    -0.303 N 
ATOM     33  H   LEU A   2       6.667  -3.263  24.754  0.00  0.00    +0.149 HD
BRANCH  30  34
ATOM     34  CA  THR A   1       8.594  -3.679  26.407  0.00  0.00    +0.166 C 
BRANCH  34  35
ATOM     35  N   THR A   1       7.541  -2.705  26.816  0.00  0.00    -0.318 NA
ATOM     36  H1  THR A   1       6.804  -2.722  26.108  0.00  0.00    +0.119 HD
ATOM     37  H2  THR A   1       7.087  -3.093  27.653  0.00  0.00    +0.119 HD
ENDBRANCH  34  35
BRANCH  34  38
ATOM     38  CB  THR A   1       8.228  -5.076  26.945  0.00  0.00    +0.137 C 
ATOM     39  CG2 THR A   1       6.746  -5.219  27.258  0.00  0.00    +0.040 C 
BRANCH  38  40
ATOM     40  OG1 THR A   1       8.570  -6.056  25.954  0.00  0.00    -0.390 OA
ATOM     41  HG1 THR A   1       9.527  -5.922  25.796  0.00  0.00    +0.210 HD
ENDBRANCH  38  40
ENDBRANCH  34  38
ENDBRANCH  30  34
ENDBRANCH  29  32
BRANCH  29  42
ATOM     42  CB  LEU A   2       5.971  -3.787  22.274  0.00  0.00    +0.034 C 
BRANCH  42  43
ATOM     43  CG  LEU A   2       5.745  -5.283  21.980  0.00  0.00    -0.015 C 
ATOM     44  CD2 LEU A   2       5.087  -6.010  23.155  0.00  0.00    +0.007 C 
ATOM     45  CD1 LEU A   2       7.082  -5.953  21.651  0.00  0.00    +0.007 C 
ENDBRANCH  42  43
ENDBRANCH  29  42
ENDBRANCH  25  29
ENDBRANCH   1  27
BRANCH   1  46
ATOM     46  CB  GLN A   3       7.772   0.424  20.644  0.00  0.00    +0.041 C 
BRANCH  46  47
ATOM     47  CG  GLN A   3       7.463   0.455  19.149  0.00  0.00    +0.098 C 
BRANCH  47  48
ATOM     48  CD  GLN A   3       6.271  -0.395  18.767  0.00  0.00    +0.211 C 
ATOM     49  NE2 GLN A   3       5.524  -0.892  19.790  0.00  0.00    -0.329 N 
ATOM     50 HE21 GLN A   3       4.730  -1.468  19.544  0.00  0.00    +0.145 HD
ATOM     51 HE22 GLN A   3       5.771  -0.807  20.765  0.00  0.00    +0.145 HD
ATOM     52  OE1 GLN A   3       5.936  -0.583  17.602  0.00  0.00    -0.276 OA
ENDBRANCH  47  48
ENDBRANCH  46  47
ENDBRANCH   1  46
TORSDOF 21
ENDMDL
MODEL 4
REMARK VINA RESULT:      -6.4      2.215      4.376
REMARK  Name = TLQAIA-mmff94.pdb
REMARK  28 active torsions:
REMARK  status: ('A' for Active; 'I' for Inactive)
REMARK    1  A    between atoms: _1  and  _2
REMARK    2  A    between atoms: _2  and  _3
REMARK    3  A    between atoms: _2  and  _5
REMARK    4  A    between atoms: _5  and  _6
REMARK    5  A    between atoms: _5  and  _7
REMARK    6  A    between atoms: _15  and  _16
REMARK    7  A    between atoms: _16  and  _17
REMARK    8  A    between atoms: _16  and  _19
REMARK    9  A    between atoms: _19  and  _20
REMARK   10  A    between atoms: _20  and  _21
REMARK   11  A    between atoms: _20  and  _22
REMARK   12  A    between atoms: _34  and  _35
REMARK   13  A    between atoms: _35  and  _36
REMARK   14  A    between atoms: _35  and  _38
REMARK   15  A    between atoms: _38  and  _39
REMARK   16  A    between atoms: _39  and  _40
REMARK   17  A    between atoms: _51  and  _52
REMARK   18  A    between atoms: _52  and  _53
REMARK   19  A    between atoms: _52  and  _55
REMARK   20  A    between atoms: _61  and  _62
REMARK   21  A    between atoms: _62  and  _63
REMARK   22  A    between atoms: _62  and  _65
REMARK   23  A    between atoms: _65  and  _66
REMARK   24  A    between atoms: _65  and  _67
REMARK   25  A    between atoms: _66  and  _68
REMARK   26  A    between atoms: _80  and  _81
REMARK   27  A    between atoms: _81  and  _82
REMARK   28  A    between atoms: _81  and  _84
REMARK                            x       y       z     vdW  Elec       q    Type
REMARK                         _______ _______ _______ _____ _____    ______ ____
ROOT
ATOM      1  CA  GLN A   3       6.201  -2.470  26.081  0.00  0.00    +0.159 C 
ENDROOT
BRANCH   1   2
ATOM      2  C   GLN A   3       5.430  -1.164  25.813  0.00  0.00    +0.234 C 
ATOM      3  N   ALA A   4       6.177  -0.150  25.273  0.00  0.00    -0.303 N 
ATOM      4  H   ALA A   4       7.184  -0.238  25.165  0.00  0.00    +0.149 HD
ATOM      5  O   GLN A   3       4.221  -1.070  26.021  0.00  0.00    -0.274 OA
BRANCH   3   6
ATOM      6  CA  ALA A   4       5.589   1.104  24.821  0.00  0.00    +0.156 C 
ATOM      7  CB  ALA A   4       5.337   2.064  25.974  0.00  0.00    +0.038 C 
BRANCH   6   8
ATOM      8  C   ALA A   4       6.573   1.726  23.820  0.00  0.00    +0.234 C 
ATOM      9  O   ALA A   4       6.690   2.945  23.695  0.00  0.00    -0.274 OA
ATOM     10  N   ILE A   5       7.304   0.822  23.091  0.00  0.00    -0.302 N 
ATOM     11  H   ILE A   5       7.126  -0.175  23.180  0.00  0.00    +0.150 HD
BRANCH  10  12
ATOM     12  CA  ILE A   5       8.308   1.212  22.098  0.00  0.00    +0.162 C 
BRANCH  12  13
ATOM     13  C   ILE A   5       8.064   0.243  20.919  0.00  0.00    +0.234 C 
ATOM     14  N   ALA A   6       6.825   0.322  20.332  0.00  0.00    -0.305 N 
ATOM     15  H   ALA A   6       6.150   1.016  20.646  0.00  0.00    +0.149 HD
ATOM     16  O   ILE A   5       8.936  -0.531  20.521  0.00  0.00    -0.274 OA
BRANCH  14  17
ATOM     17  CA  ALA A   6       6.482  -0.435  19.139  0.00  0.00    +0.133 C 
ATOM     18  CB  ALA A   6       5.654  -1.667  19.470  0.00  0.00    +0.035 C 
BRANCH  17  19
ATOM     19  C   ALA A   6       5.697   0.474  18.204  0.00  0.00    +0.245 C 
ATOM     20  O   ALA A   6       6.224   1.224  17.383  0.00  0.00    -0.299 OA
ENDBRANCH  17  19
ENDBRANCH  14  17
ENDBRANCH  12  13
BRANCH  12  21
ATOM     21  CB  ILE A   5       9.760   1.088  22.653  0.00  0.00    +0.015 C 
ATOM     22  CG2 ILE A   5      10.312   2.456  23.079  0.00  0.00    +0.010 C 
BRANCH  21  23
ATOM     23  CG1 ILE A   5       9.837   0.079  23.825  0.00  0.00    +0.002 C 
ATOM     24  CD1 ILE A   5      10.841   0.444  24.913  0.00  0.00    +0.004 C 
ENDBRANCH  21  23
ENDBRANCH  12  21
ENDBRANCH  10  12
ENDBRANCH   6   8
ENDBRANCH   3   6
ENDBRANCH   1   2
BRANCH   1  27
ATOM     25  C   LEU A   2       5.241  -4.759  25.958  0.00  0.00    +0.234 C 
ATOM     26  O   LEU A   2       5.619  -5.051  27.094  0.00  0.00    -0.274 OA
ATOM     27  N   GLN A   3       5.464  -3.529  25.395  0.00  0.00    -0.302 N 
ATOM     28  H   GLN A   3       5.181  -3.339  24.436  0.00  0.00    +0.150 HD
BRANCH  25  29
ATOM     29  CA  LEU A   2       4.442  -5.746  25.081  0.00  0.00    +0.159 C 
BRANCH  29  32
ATOM     30  C   THR A   1       5.158  -5.584  22.707  0.00  0.00    +0.233 C 
ATOM     31  O   THR A   1       4.194  -4.896  22.376  0.00  0.00    -0.274 OA
ATOM     32  N   LEU A   2       5.314  -6.106  23.967  0.00  0.00    -0.303 N 
ATOM     33  H   LEU A   2       6.209  -6.514  24.228  0.00  0.00    +0.149 HD
BRANCH  30  34
ATOM     34  CA  THR A   1       6.269  -5.963  21.715  0.00  0.00    +0.166 C 
BRANCH  34  35
ATOM     35  N   THR A   1       5.836  -5.597  20.334  0.00  0.00    -0.318 NA
ATOM     36  H1  THR A   1       6.392  -4.794  20.033  0.00  0.00    +0.119 HD
ATOM     37  H2  THR A   1       6.147  -6.357  19.716  0.00  0.00    +0.119 HD
ENDBRANCH  34  35
BRANCH  34  38
ATOM     38  CB  THR A   1       7.567  -5.206  22.056  0.00  0.00    +0.137 C 
ATOM     39  CG2 THR A   1       7.343  -3.717  22.278  0.00  0.00    +0.040 C 
BRANCH  38  40
ATOM     40  OG1 THR A   1       8.119  -5.757  23.260  0.00  0.00    -0.390 OA
ATOM     41  HG1 THR A   1       8.533  -4.992  23.711  0.00  0.00    +0.210 HD
ENDBRANCH  38  40
ENDBRANCH  34  38
ENDBRANCH  30  34
ENDBRANCH  29  32
BRANCH  29  42
ATOM     42  CB  LEU A   2       4.051  -6.977  25.914  0.00  0.00    +0.034 C 
BRANCH  42  43
ATOM     43  CG  LEU A   2       2.551  -7.330  25.880  0.00  0.00    -0.015 C 
ATOM     44  CD2 LEU A   2       2.235  -8.410  24.843  0.00  0.00    +0.007 C 
ATOM     45  CD1 LEU A   2       1.731  -6.074  25.574  0.00  0.00    +0.007 C 
ENDBRANCH  42  43
ENDBRANCH  29  42
ENDBRANCH  25  29
ENDBRANCH   1  27
BRANCH   1  46
ATOM     46  CB  GLN A   3       7.640  -2.384  25.547  0.00  0.00    +0.041 C 
BRANCH  46  47
ATOM     47  CG  GLN A   3       8.665  -3.101  26.423  0.00  0.00    +0.098 C 
BRANCH  47  48
ATOM     48  CD  GLN A   3       9.131  -4.419  25.841  0.00  0.00    +0.211 C 
ATOM     49  NE2 GLN A   3       8.576  -5.546  26.364  0.00  0.00    -0.329 N 
ATOM     50 HE21 GLN A   3       8.888  -6.432  25.988  0.00  0.00    +0.145 HD
ATOM     51 HE22 GLN A   3       7.960  -5.555  27.164  0.00  0.00    +0.145 HD
ATOM     52  OE1 GLN A   3       9.914  -4.489  24.901  0.00  0.00    -0.276 OA
ENDBRANCH  47  48
ENDBRANCH  46  47
ENDBRANCH   1  46
TORSDOF 21
ENDMDL
MODEL 5
REMARK VINA RESULT:      -6.4      1.949      6.196
REMARK  Name = TLQAIA-mmff94.pdb
REMARK  28 active torsions:
REMARK  status: ('A' for Active; 'I' for Inactive)
REMARK    1  A    between atoms: _1  and  _2
REMARK    2  A    between atoms: _2  and  _3
REMARK    3  A    between atoms: _2  and  _5
REMARK    4  A    between atoms: _5  and  _6
REMARK    5  A    between atoms: _5  and  _7
REMARK    6  A    between atoms: _15  and  _16
REMARK    7  A    between atoms: _16  and  _17
REMARK    8  A    between atoms: _16  and  _19
REMARK    9  A    between atoms: _19  and  _20
REMARK   10  A    between atoms: _20  and  _21
REMARK   11  A    between atoms: _20  and  _22
REMARK   12  A    between atoms: _34  and  _35
REMARK   13  A    between atoms: _35  and  _36
REMARK   14  A    between atoms: _35  and  _38
REMARK   15  A    between atoms: _38  and  _39
REMARK   16  A    between atoms: _39  and  _40
REMARK   17  A    between atoms: _51  and  _52
REMARK   18  A    between atoms: _52  and  _53
REMARK   19  A    between atoms: _52  and  _55
REMARK   20  A    between atoms: _61  and  _62
REMARK   21  A    between atoms: _62  and  _63
REMARK   22  A    between atoms: _62  and  _65
REMARK   23  A    between atoms: _65  and  _66
REMARK   24  A    between atoms: _65  and  _67
REMARK   25  A    between atoms: _66  and  _68
REMARK   26  A    between atoms: _80  and  _81
REMARK   27  A    between atoms: _81  and  _82
REMARK   28  A    between atoms: _81  and  _84
REMARK                            x       y       z     vdW  Elec       q    Type
REMARK                         _______ _______ _______ _____ _____    ______ ____
ROOT
ATOM      1  CA  GLN A   3       8.890  -0.100  21.173  0.00  0.00    +0.159 C 
ENDROOT
BRANCH   1   2
ATOM      2  C   GLN A   3       9.355   0.596  22.466  0.00  0.00    +0.234 C 
ATOM      3  N   ALA A   4       8.404   1.365  23.085  0.00  0.00    -0.303 N 
ATOM      4  H   ALA A   4       7.500   1.533  22.652  0.00  0.00    +0.149 HD
ATOM      5  O   GLN A   3      10.483   0.423  22.927  0.00  0.00    -0.274 OA
BRANCH   3   6
ATOM      6  CA  ALA A   4       8.617   1.980  24.389  0.00  0.00    +0.156 C 
ATOM      7  CB  ALA A   4       7.921   3.328  24.502  0.00  0.00    +0.038 C 
BRANCH   6   8
ATOM      8  C   ALA A   4       8.063   1.008  25.441  0.00  0.00    +0.234 C 
ATOM      9  O   ALA A   4       8.515  -0.128  25.576  0.00  0.00    -0.274 OA
ATOM     10  N   ILE A   5       7.040   1.508  26.206  0.00  0.00    -0.302 N 
ATOM     11  H   ILE A   5       6.654   2.429  26.013  0.00  0.00    +0.150 HD
BRANCH  10  12
ATOM     12  CA  ILE A   5       6.388   0.747  27.275  0.00  0.00    +0.162 C 
BRANCH  12  13
ATOM     13  C   ILE A   5       5.232   0.012  26.558  0.00  0.00    +0.234 C 
ATOM     14  N   ALA A   6       5.117  -1.327  26.837  0.00  0.00    -0.305 N 
ATOM     15  H   ALA A   6       5.738  -1.769  27.511  0.00  0.00    +0.149 HD
ATOM     16  O   ILE A   5       4.454   0.600  25.806  0.00  0.00    -0.274 OA
BRANCH  14  17
ATOM     17  CA  ALA A   6       4.013  -2.132  26.338  0.00  0.00    +0.133 C 
ATOM     18  CB  ALA A   6       4.384  -2.872  25.062  0.00  0.00    +0.035 C 
BRANCH  17  19
ATOM     19  C   ALA A   6       3.624  -3.133  27.417  0.00  0.00    +0.245 C 
ATOM     20  O   ALA A   6       3.849  -2.963  28.615  0.00  0.00    -0.299 OA
ENDBRANCH  17  19
ENDBRANCH  14  17
ENDBRANCH  12  13
BRANCH  12  21
ATOM     21  CB  ILE A   5       5.863   1.670  28.416  0.00  0.00    +0.015 C 
ATOM     22  CG2 ILE A   5       5.046   0.873  29.444  0.00  0.00    +0.010 C 
BRANCH  21  23
ATOM     23  CG1 ILE A   5       7.019   2.432  29.110  0.00  0.00    +0.002 C 
ATOM     24  CD1 ILE A   5       7.741   1.640  30.194  0.00  0.00    +0.004 C 
ENDBRANCH  21  23
ENDBRANCH  12  21
ENDBRANCH  10  12
ENDBRANCH   6   8
ENDBRANCH   3   6
ENDBRANCH   1   2
BRANCH   1  27
ATOM     25  C   LEU A   2       7.569  -1.903  22.262  0.00  0.00    +0.234 C 
ATOM     26  O   LEU A   2       6.702  -1.121  22.655  0.00  0.00    -0.274 OA
ATOM     27  N   GLN A   3       8.653  -1.499  21.525  0.00  0.00    -0.302 N 
ATOM     28  H   GLN A   3       9.376  -2.164  21.259  0.00  0.00    +0.150 HD
BRANCH  25  29
ATOM     29  CA  LEU A   2       7.488  -3.420  22.531  0.00  0.00    +0.159 C 
BRANCH  29  32
ATOM     30  C   THR A   1       8.935  -3.433  24.552  0.00  0.00    +0.233 C 
ATOM     31  O   THR A   1       9.973  -3.276  23.912  0.00  0.00    -0.274 OA
ATOM     32  N   LEU A   2       7.705  -3.596  23.965  0.00  0.00    -0.303 N 
ATOM     33  H   LEU A   2       6.869  -3.544  24.542  0.00  0.00    +0.149 HD
BRANCH  30  34
ATOM     34  CA  THR A   1       8.926  -3.505  26.087  0.00  0.00    +0.166 C 
BRANCH  34  35
ATOM     35  N   THR A   1       7.710  -2.808  26.601  0.00  0.00    -0.318 NA
ATOM     36  H1  THR A   1       6.949  -2.977  25.941  0.00  0.00    +0.119 HD
ATOM     37  H2  THR A   1       7.417  -3.311  27.448  0.00  0.00    +0.119 HD
ENDBRANCH  34  35
BRANCH  34  38
ATOM     38  CB  THR A   1       8.902  -4.974  26.551  0.00  0.00    +0.137 C 
ATOM     39  CG2 THR A   1       7.499  -5.469  26.876  0.00  0.00    +0.040 C 
BRANCH  38  40
ATOM     40  OG1 THR A   1       9.431  -5.798  25.502  0.00  0.00    -0.390 OA
ATOM     41  HG1 THR A   1       9.265  -5.288  24.682  0.00  0.00    +0.210 HD
ENDBRANCH  38  40
ENDBRANCH  34  38
ENDBRANCH  30  34
ENDBRANCH  29  32
BRANCH  29  42
ATOM     42  CB  LEU A   2       6.113  -3.949  22.098  0.00  0.00    +0.034 C 
BRANCH  42  43
ATOM     43  CG  LEU A   2       5.999  -5.485  22.041  0.00  0.00    -0.015 C 
ATOM     44  CD2 LEU A   2       5.292  -6.058  23.271  0.00  0.00    +0.007 C 
ATOM     45  CD1 LEU A   2       7.396  -6.103  21.923  0.00  0.00    +0.007 C 
ENDBRANCH  42  43
ENDBRANCH  29  42
ENDBRANCH  25  29
ENDBRANCH   1  27
BRANCH   1  46
ATOM     46  CB  GLN A   3       7.604   0.542  20.630  0.00  0.00    +0.041 C 
BRANCH  46  47
ATOM     47  CG  GLN A   3       7.442   0.407  19.117  0.00  0.00    +0.098 C 
BRANCH  47  48
ATOM     48  CD  GLN A   3       6.215  -0.383  18.715  0.00  0.00    +0.211 C 
ATOM     49  NE2 GLN A   3       5.451  -0.878  19.726  0.00  0.00    -0.329 N 
ATOM     50 HE21 GLN A   3       4.633  -1.415  19.467  0.00  0.00    +0.145 HD
ATOM     51 HE22 GLN A   3       5.703  -0.831  20.702  0.00  0.00    +0.145 HD
ATOM     52  OE1 GLN A   3       5.871  -0.524  17.547  0.00  0.00    -0.276 OA
ENDBRANCH  47  48
ENDBRANCH  46  47
ENDBRANCH   1  46
TORSDOF 21
ENDMDL
MODEL 6
REMARK VINA RESULT:      -6.4      2.243      4.867
REMARK  Name = TLQAIA-mmff94.pdb
REMARK  28 active torsions:
REMARK  status: ('A' for Active; 'I' for Inactive)
REMARK    1  A    between atoms: _1  and  _2
REMARK    2  A    between atoms: _2  and  _3
REMARK    3  A    between atoms: _2  and  _5
REMARK    4  A    between atoms: _5  and  _6
REMARK    5  A    between atoms: _5  and  _7
REMARK    6  A    between atoms: _15  and  _16
REMARK    7  A    between atoms: _16  and  _17
REMARK    8  A    between atoms: _16  and  _19
REMARK    9  A    between atoms: _19  and  _20
REMARK   10  A    between atoms: _20  and  _21
REMARK   11  A    between atoms: _20  and  _22
REMARK   12  A    between atoms: _34  and  _35
REMARK   13  A    between atoms: _35  and  _36
REMARK   14  A    between atoms: _35  and  _38
REMARK   15  A    between atoms: _38  and  _39
REMARK   16  A    between atoms: _39  and  _40
REMARK   17  A    between atoms: _51  and  _52
REMARK   18  A    between atoms: _52  and  _53
REMARK   19  A    between atoms: _52  and  _55
REMARK   20  A    between atoms: _61  and  _62
REMARK   21  A    between atoms: _62  and  _63
REMARK   22  A    between atoms: _62  and  _65
REMARK   23  A    between atoms: _65  and  _66
REMARK   24  A    between atoms: _65  and  _67
REMARK   25  A    between atoms: _66  and  _68
REMARK   26  A    between atoms: _80  and  _81
REMARK   27  A    between atoms: _81  and  _82
REMARK   28  A    between atoms: _81  and  _84
REMARK                            x       y       z     vdW  Elec       q    Type
REMARK                         _______ _______ _______ _____ _____    ______ ____
ROOT
ATOM      1  CA  GLN A   3       8.078  -1.601  26.020  0.00  0.00    +0.159 C 
ENDROOT
BRANCH   1   2
ATOM      2  C   GLN A   3       6.790  -0.813  26.322  0.00  0.00    +0.234 C 
ATOM      3  N   ALA A   4       6.686   0.396  25.684  0.00  0.00    -0.303 N 
ATOM      4  H   ALA A   4       7.460   0.772  25.142  0.00  0.00    +0.149 HD
ATOM      5  O   GLN A   3       5.901  -1.271  27.040  0.00  0.00    -0.274 OA
BRANCH   3   6
ATOM      6  CA  ALA A   4       5.480   1.211  25.735  0.00  0.00    +0.156 C 
ATOM      7  CB  ALA A   4       5.515   2.209  26.882  0.00  0.00    +0.038 C 
BRANCH   6   8
ATOM      8  C   ALA A   4       5.381   1.951  24.392  0.00  0.00    +0.234 C 
ATOM      9  O   ALA A   4       4.310   2.378  23.964  0.00  0.00    -0.274 OA
ATOM     10  N   ILE A   5       6.571   2.097  23.726  0.00  0.00    -0.302 N 
ATOM     11  H   ILE A   5       7.420   1.669  24.086  0.00  0.00    +0.150 HD
BRANCH  10  12
ATOM     12  CA  ILE A   5       6.693   2.788  22.439  0.00  0.00    +0.162 C 
BRANCH  12  13
ATOM     13  C   ILE A   5       7.206   1.694  21.475  0.00  0.00    +0.234 C 
ATOM     14  N   ALA A   6       6.237   1.005  20.790  0.00  0.00    -0.305 N 
ATOM     15  H   ALA A   6       5.255   1.252  20.896  0.00  0.00    +0.149 HD
ATOM     16  O   ILE A   5       8.409   1.476  21.318  0.00  0.00    -0.274 OA
BRANCH  14  17
ATOM     17  CA  ALA A   6       6.559   0.030  19.759  0.00  0.00    +0.133 C 
ATOM     18  CB  ALA A   6       5.951  -1.331  20.059  0.00  0.00    +0.035 C 
BRANCH  17  19
ATOM     19  C   ALA A   6       6.030   0.547  18.429  0.00  0.00    +0.245 C 
ATOM     20  O   ALA A   6       5.793  -0.178  17.463  0.00  0.00    -0.299 OA
ENDBRANCH  17  19
ENDBRANCH  14  17
ENDBRANCH  12  13
BRANCH  12  21
ATOM     21  CB  ILE A   5       7.676   3.996  22.513  0.00  0.00    +0.015 C 
ATOM     22  CG2 ILE A   5       6.935   5.328  22.327  0.00  0.00    +0.010 C 
BRANCH  21  23
ATOM     23  CG1 ILE A   5       8.477   3.998  23.839  0.00  0.00    +0.002 C 
ATOM     24  CD1 ILE A   5       9.885   3.424  23.732  0.00  0.00    +0.004 C 
ENDBRANCH  21  23
ENDBRANCH  12  21
ENDBRANCH  10  12
ENDBRANCH   6   8
ENDBRANCH   3   6
ENDBRANCH   1   2
BRANCH   1  27
ATOM     25  C   LEU A   2       8.111  -4.087  25.987  0.00  0.00    +0.234 C 
ATOM     26  O   LEU A   2       8.892  -4.155  26.936  0.00  0.00    -0.274 OA
ATOM     27  N   GLN A   3       7.652  -2.894  25.488  0.00  0.00    -0.302 N 
ATOM     28  H   GLN A   3       7.045  -2.872  24.671  0.00  0.00    +0.150 HD
BRANCH  25  29
ATOM     29  CA  LEU A   2       7.546  -5.346  25.297  0.00  0.00    +0.159 C 
BRANCH  29  32
ATOM     30  C   THR A   1       5.582  -5.940  26.701  0.00  0.00    +0.233 C 
ATOM     31  O   THR A   1       6.243  -6.618  27.485  0.00  0.00    -0.274 OA
ATOM     32  N   LEU A   2       6.112  -5.361  25.574  0.00  0.00    -0.303 N 
ATOM     33  H   LEU A   2       5.563  -4.672  25.065  0.00  0.00    +0.149 HD
BRANCH  30  34
ATOM     34  CA  THR A   1       4.075  -5.712  26.889  0.00  0.00    +0.166 C 
BRANCH  34  35
ATOM     35  N   THR A   1       3.748  -4.296  26.547  0.00  0.00    -0.318 NA
ATOM     36  H1  THR A   1       2.822  -4.087  26.924  0.00  0.00    +0.119 HD
ATOM     37  H2  THR A   1       4.379  -3.704  27.102  0.00  0.00    +0.119 HD
ENDBRANCH  34  35
BRANCH  34  38
ATOM     38  CB  THR A   1       3.275  -6.652  25.968  0.00  0.00    +0.137 C 
ATOM     39  CG2 THR A   1       2.736  -5.950  24.729  0.00  0.00    +0.040 C 
BRANCH  38  40
ATOM     40  OG1 THR A   1       4.135  -7.717  25.536  0.00  0.00    -0.390 OA
ATOM     41  HG1 THR A   1       3.766  -8.518  25.961  0.00  0.00    +0.210 HD
ENDBRANCH  38  40
ENDBRANCH  34  38
ENDBRANCH  30  34
ENDBRANCH  29  32
BRANCH  29  42
ATOM     42  CB  LEU A   2       7.829  -5.280  23.789  0.00  0.00    +0.034 C 
BRANCH  42  43
ATOM     43  CG  LEU A   2       6.576  -5.309  22.892  0.00  0.00    -0.015 C 
ATOM     44  CD2 LEU A   2       6.765  -6.201  21.664  0.00  0.00    +0.007 C 
ATOM     45  CD1 LEU A   2       6.230  -3.887  22.441  0.00  0.00    +0.007 C 
ENDBRANCH  42  43
ENDBRANCH  29  42
ENDBRANCH  25  29
ENDBRANCH   1  27
BRANCH   1  46
ATOM     46  CB  GLN A   3       8.953  -0.862  24.997  0.00  0.00    +0.041 C 
BRANCH  46  47
ATOM     47  CG  GLN A   3       8.582  -1.154  23.544  0.00  0.00    +0.098 C 
BRANCH  47  48
ATOM     48  CD  GLN A   3       9.715  -1.765  22.748  0.00  0.00    +0.211 C 
ATOM     49  NE2 GLN A   3       9.883  -1.308  21.478  0.00  0.00    -0.329 N 
ATOM     50 HE21 GLN A   3      10.633  -1.717  20.935  0.00  0.00    +0.145 HD
ATOM     51 HE22 GLN A   3       9.251  -0.671  21.017  0.00  0.00    +0.145 HD
ATOM     52  OE1 GLN A   3      10.495  -2.581  23.225  0.00  0.00    -0.276 OA
ENDBRANCH  47  48
ENDBRANCH  46  47
ENDBRANCH   1  46
TORSDOF 21
ENDMDL
MODEL 7
REMARK VINA RESULT:      -6.4      2.163      6.111
REMARK  Name = TLQAIA-mmff94.pdb
REMARK  28 active torsions:
REMARK  status: ('A' for Active; 'I' for Inactive)
REMARK    1  A    between atoms: _1  and  _2
REMARK    2  A    between atoms: _2  and  _3
REMARK    3  A    between atoms: _2  and  _5
REMARK    4  A    between atoms: _5  and  _6
REMARK    5  A    between atoms: _5  and  _7
REMARK    6  A    between atoms: _15  and  _16
REMARK    7  A    between atoms: _16  and  _17
REMARK    8  A    between atoms: _16  and  _19
REMARK    9  A    between atoms: _19  and  _20
REMARK   10  A    between atoms: _20  and  _21
REMARK   11  A    between atoms: _20  and  _22
REMARK   12  A    between atoms: _34  and  _35
REMARK   13  A    between atoms: _35  and  _36
REMARK   14  A    between atoms: _35  and  _38
REMARK   15  A    between atoms: _38  and  _39
REMARK   16  A    between atoms: _39  and  _40
REMARK   17  A    between atoms: _51  and  _52
REMARK   18  A    between atoms: _52  and  _53
REMARK   19  A    between atoms: _52  and  _55
REMARK   20  A    between atoms: _61  and  _62
REMARK   21  A    between atoms: _62  and  _63
REMARK   22  A    between atoms: _62  and  _65
REMARK   23  A    between atoms: _65  and  _66
REMARK   24  A    between atoms: _65  and  _67
REMARK   25  A    between atoms: _66  and  _68
REMARK   26  A    between atoms: _80  and  _81
REMARK   27  A    between atoms: _81  and  _82
REMARK   28  A    between atoms: _81  and  _84
REMARK                            x       y       z     vdW  Elec       q    Type
REMARK                         _______ _______ _______ _____ _____    ______ ____
ROOT
ATOM      1  CA  GLN A   3       8.954   0.552  21.478  0.00  0.00    +0.159 C 
ENDROOT
BRANCH   1   2
ATOM      2  C   GLN A   3       9.507   1.214  22.755  0.00  0.00    +0.234 C 
ATOM      3  N   ALA A   4      10.074   2.448  22.569  0.00  0.00    -0.303 N 
ATOM      4  H   ALA A   4      10.204   2.833  21.637  0.00  0.00    +0.149 HD
ATOM      5  O   GLN A   3       9.392   0.687  23.861  0.00  0.00    -0.274 OA
BRANCH   3   6
ATOM      6  CA  ALA A   4      10.518   3.283  23.678  0.00  0.00    +0.156 C 
ATOM      7  CB  ALA A   4      11.715   4.142  23.298  0.00  0.00    +0.038 C 
BRANCH   6   8
ATOM      8  C   ALA A   4       9.331   4.174  24.073  0.00  0.00    +0.234 C 
ATOM      9  O   ALA A   4       9.264   5.354  23.734  0.00  0.00    -0.274 OA
ATOM     10  N   ILE A   5       8.366   3.549  24.822  0.00  0.00    -0.302 N 
ATOM     11  H   ILE A   5       8.496   2.591  25.135  0.00  0.00    +0.150 HD
BRANCH  10  12
ATOM     12  CA  ILE A   5       7.147   4.218  25.283  0.00  0.00    +0.162 C 
BRANCH  12  13
ATOM     13  C   ILE A   5       7.218   4.103  26.823  0.00  0.00    +0.234 C 
ATOM     14  N   ALA A   6       6.703   2.948  27.357  0.00  0.00    -0.305 N 
ATOM     15  H   ALA A   6       6.347   2.214  26.749  0.00  0.00    +0.149 HD
ATOM     16  O   ILE A   5       7.727   4.984  27.519  0.00  0.00    -0.274 OA
BRANCH  14  17
ATOM     17  CA  ALA A   6       6.803   2.636  28.774  0.00  0.00    +0.133 C 
ATOM     18  CB  ALA A   6       5.478   2.839  29.492  0.00  0.00    +0.035 C 
BRANCH  17  19
ATOM     19  C   ALA A   6       7.246   1.186  28.915  0.00  0.00    +0.245 C 
ATOM     20  O   ALA A   6       7.315   0.401  27.970  0.00  0.00    -0.299 OA
ENDBRANCH  17  19
ENDBRANCH  14  17
ENDBRANCH  12  13
BRANCH  12  21
ATOM     21  CB  ILE A   5       5.859   3.548  24.716  0.00  0.00    +0.015 C 
ATOM     22  CG2 ILE A   5       4.995   4.562  23.950  0.00  0.00    +0.010 C 
BRANCH  21  23
ATOM     23  CG1 ILE A   5       6.198   2.332  23.818  0.00  0.00    +0.002 C 
ATOM     24  CD1 ILE A   5       5.878   0.977  24.437  0.00  0.00    +0.004 C 
ENDBRANCH  21  23
ENDBRANCH  12  21
ENDBRANCH  10  12
ENDBRANCH   6   8
ENDBRANCH   3   6
ENDBRANCH   1   2
BRANCH   1  27
ATOM     25  C   LEU A   2       8.930  -1.849  22.120  0.00  0.00    +0.234 C 
ATOM     26  O   LEU A   2      10.148  -1.966  21.986  0.00  0.00    -0.274 OA
ATOM     27  N   GLN A   3       8.270  -0.665  21.911  0.00  0.00    -0.302 N 
ATOM     28  H   GLN A   3       7.256  -0.616  21.984  0.00  0.00    +0.150 HD
BRANCH  25  29
ATOM     29  CA  LEU A   2       8.039  -3.023  22.576  0.00  0.00    +0.159 C 
BRANCH  29  32
ATOM     30  C   THR A   1       8.605  -3.972  24.803  0.00  0.00    +0.233 C 
ATOM     31  O   THR A   1       9.040  -5.024  24.336  0.00  0.00    -0.274 OA
ATOM     32  N   LEU A   2       8.028  -2.990  24.036  0.00  0.00    -0.303 N 
ATOM     33  H   LEU A   2       7.851  -2.078  24.450  0.00  0.00    +0.149 HD
BRANCH  30  34
ATOM     34  CA  THR A   1       8.629  -3.677  26.310  0.00  0.00    +0.166 C 
BRANCH  34  35
ATOM     35  N   THR A   1       8.163  -2.278  26.541  0.00  0.00    -0.318 NA
ATOM     36  H1  THR A   1       7.709  -1.952  25.686  0.00  0.00    +0.119 HD
ATOM     37  H2  THR A   1       7.395  -2.330  27.222  0.00  0.00    +0.119 HD
ENDBRANCH  34  35
BRANCH  34  38
ATOM     38  CB  THR A   1       7.698  -4.650  27.058  0.00  0.00    +0.137 C 
ATOM     39  CG2 THR A   1       6.273  -4.635  26.523  0.00  0.00    +0.040 C 
BRANCH  38  40
ATOM     40  OG1 THR A   1       8.212  -5.982  26.915  0.00  0.00    -0.390 OA
ATOM     41  HG1 THR A   1       7.653  -6.387  26.220  0.00  0.00    +0.210 HD
ENDBRANCH  38  40
ENDBRANCH  34  38
ENDBRANCH  30  34
ENDBRANCH  29  32
BRANCH  29  42
ATOM     42  CB  LEU A   2       6.626  -2.856  21.997  0.00  0.00    +0.034 C 
BRANCH  42  43
ATOM     43  CG  LEU A   2       5.845  -4.171  21.806  0.00  0.00    -0.015 C 
ATOM     44  CD2 LEU A   2       4.912  -4.464  22.983  0.00  0.00    +0.007 C 
ATOM     45  CD1 LEU A   2       6.825  -5.334  21.631  0.00  0.00    +0.007 C 
ENDBRANCH  42  43
ENDBRANCH  29  42
ENDBRANCH  25  29
ENDBRANCH   1  27
BRANCH   1  46
ATOM     46  CB  GLN A   3       7.976   1.487  20.749  0.00  0.00    +0.041 C 
BRANCH  46  47
ATOM     47  CG  GLN A   3       6.675   0.807  20.325  0.00  0.00    +0.098 C 
BRANCH  47  48
ATOM     48  CD  GLN A   3       6.580   0.575  18.833  0.00  0.00    +0.211 C 
ATOM     49  NE2 GLN A   3       5.398   0.897  18.240  0.00  0.00    -0.329 N 
ATOM     50 HE21 GLN A   3       5.323   0.737  17.244  0.00  0.00    +0.145 HD
ATOM     51 HE22 GLN A   3       4.572   1.182  18.743  0.00  0.00    +0.145 HD
ATOM     52  OE1 GLN A   3       7.528   0.184  18.161  0.00  0.00    -0.276 OA
ENDBRANCH  47  48
ENDBRANCH  46  47
ENDBRANCH   1  46
TORSDOF 21
ENDMDL
MODEL 8
REMARK VINA RESULT:      -6.3      2.179      6.201
REMARK  Name = TLQAIA-mmff94.pdb
REMARK  28 active torsions:
REMARK  status: ('A' for Active; 'I' for Inactive)
REMARK    1  A    between atoms: _1  and  _2
REMARK    2  A    between atoms: _2  and  _3
REMARK    3  A    between atoms: _2  and  _5
REMARK    4  A    between atoms: _5  and  _6
REMARK    5  A    between atoms: _5  and  _7
REMARK    6  A    between atoms: _15  and  _16
REMARK    7  A    between atoms: _16  and  _17
REMARK    8  A    between atoms: _16  and  _19
REMARK    9  A    between atoms: _19  and  _20
REMARK   10  A    between atoms: _20  and  _21
REMARK   11  A    between atoms: _20  and  _22
REMARK   12  A    between atoms: _34  and  _35
REMARK   13  A    between atoms: _35  and  _36
REMARK   14  A    between atoms: _35  and  _38
REMARK   15  A    between atoms: _38  and  _39
REMARK   16  A    between atoms: _39  and  _40
REMARK   17  A    between atoms: _51  and  _52
REMARK   18  A    between atoms: _52  and  _53
REMARK   19  A    between atoms: _52  and  _55
REMARK   20  A    between atoms: _61  and  _62
REMARK   21  A    between atoms: _62  and  _63
REMARK   22  A    between atoms: _62  and  _65
REMARK   23  A    between atoms: _65  and  _66
REMARK   24  A    between atoms: _65  and  _67
REMARK   25  A    between atoms: _66  and  _68
REMARK   26  A    between atoms: _80  and  _81
REMARK   27  A    between atoms: _81  and  _82
REMARK   28  A    between atoms: _81  and  _84
REMARK                            x       y       z     vdW  Elec       q    Type
REMARK                         _______ _______ _______ _____ _____    ______ ____
ROOT
ATOM      1  CA  GLN A   3       7.372  -2.184  21.636  0.00  0.00    +0.159 C 
ENDROOT
BRANCH   1   2
ATOM      2  C   GLN A   3       8.637  -1.620  22.309  0.00  0.00    +0.234 C 
ATOM      3  N   ALA A   4       8.774  -0.258  22.236  0.00  0.00    -0.303 N 
ATOM      4  H   ALA A   4       8.134   0.307  21.683  0.00  0.00    +0.149 HD
ATOM      5  O   GLN A   3       9.428  -2.343  22.913  0.00  0.00    -0.274 OA
BRANCH   3   6
ATOM      6  CA  ALA A   4       9.828   0.465  22.936  0.00  0.00    +0.156 C 
ATOM      7  CB  ALA A   4      10.051   1.852  22.353  0.00  0.00    +0.038 C 
BRANCH   6   8
ATOM      8  C   ALA A   4       9.398   0.572  24.407  0.00  0.00    +0.234 C 
ATOM      9  O   ALA A   4      10.216   0.540  25.326  0.00  0.00    -0.274 OA
ATOM     10  N   ILE A   5       8.047   0.709  24.604  0.00  0.00    -0.302 N 
ATOM     11  H   ILE A   5       7.404   0.663  23.819  0.00  0.00    +0.150 HD
BRANCH  10  12
ATOM     12  CA  ILE A   5       7.438   0.845  25.930  0.00  0.00    +0.162 C 
BRANCH  12  13
ATOM     13  C   ILE A   5       6.414  -0.312  25.991  0.00  0.00    +0.234 C 
ATOM     14  N   ALA A   6       5.377  -0.141  26.873  0.00  0.00    -0.305 N 
ATOM     15  H   ALA A   6       5.289   0.722  27.404  0.00  0.00    +0.149 HD
ATOM     16  O   ILE A   5       6.515  -1.309  25.274  0.00  0.00    -0.274 OA
BRANCH  14  17
ATOM     17  CA  ALA A   6       4.270  -1.081  26.961  0.00  0.00    +0.133 C 
ATOM     18  CB  ALA A   6       4.513  -2.143  28.022  0.00  0.00    +0.035 C 
BRANCH  17  19
ATOM     19  C   ALA A   6       3.006  -0.302  27.295  0.00  0.00    +0.245 C 
ATOM     20  O   ALA A   6       1.898  -0.572  26.833  0.00  0.00    -0.299 OA
ENDBRANCH  17  19
ENDBRANCH  14  17
ENDBRANCH  12  13
BRANCH  12  21
ATOM     21  CB  ILE A   5       6.751   2.231  26.120  0.00  0.00    +0.015 C 
ATOM     22  CG2 ILE A   5       7.074   2.828  27.498  0.00  0.00    +0.010 C 
BRANCH  21  23
ATOM     23  CG1 ILE A   5       7.140   3.219  24.992  0.00  0.00    +0.002 C 
ATOM     24  CD1 ILE A   5       8.227   4.219  25.370  0.00  0.00    +0.004 C 
ENDBRANCH  21  23
ENDBRANCH  12  21
ENDBRANCH  10  12
ENDBRANCH   6   8
ENDBRANCH   3   6
ENDBRANCH   1   2
BRANCH   1  27
ATOM     25  C   LEU A   2       5.892  -4.020  22.424  0.00  0.00    +0.234 C 
ATOM     26  O   LEU A   2       5.813  -4.526  21.303  0.00  0.00    -0.274 OA
ATOM     27  N   GLN A   3       6.636  -2.897  22.680  0.00  0.00    -0.302 N 
ATOM     28  H   GLN A   3       6.640  -2.477  23.606  0.00  0.00    +0.150 HD
BRANCH  25  29
ATOM     29  CA  LEU A   2       5.188  -4.633  23.652  0.00  0.00    +0.159 C 
BRANCH  29  32
ATOM     30  C   THR A   1       6.366  -5.255  25.751  0.00  0.00    +0.233 C 
ATOM     31  O   THR A   1       5.880  -6.384  25.787  0.00  0.00    -0.274 OA
ATOM     32  N   LEU A   2       6.025  -4.318  24.807  0.00  0.00    -0.303 N 
ATOM     33  H   LEU A   2       6.585  -3.473  24.722  0.00  0.00    +0.149 HD
BRANCH  30  34
ATOM     34  CA  THR A   1       7.380  -4.769  26.798  0.00  0.00    +0.166 C 
BRANCH  34  35
ATOM     35  N   THR A   1       7.626  -5.862  27.784  0.00  0.00    -0.318 NA
ATOM     36  H1  THR A   1       8.215  -5.485  28.530  0.00  0.00    +0.119 HD
ATOM     37  H2  THR A   1       6.729  -6.048  28.250  0.00  0.00    +0.119 HD
ENDBRANCH  34  35
BRANCH  34  38
ATOM     38  CB  THR A   1       8.709  -4.394  26.117  0.00  0.00    +0.137 C 
ATOM     39  CG2 THR A   1       9.205  -5.464  25.154  0.00  0.00    +0.040 C 
BRANCH  38  40
ATOM     40  OG1 THR A   1       8.520  -3.181  25.373  0.00  0.00    -0.390 OA
ATOM     41  HG1 THR A   1       7.575  -2.959  25.501  0.00  0.00    +0.210 HD
ENDBRANCH  38  40
ENDBRANCH  34  38
ENDBRANCH  30  34
ENDBRANCH  29  32
BRANCH  29  42
ATOM     42  CB  LEU A   2       3.781  -4.035  23.794  0.00  0.00    +0.034 C 
BRANCH  42  43
ATOM     43  CG  LEU A   2       2.679  -5.049  24.159  0.00  0.00    -0.015 C 
ATOM     44  CD2 LEU A   2       2.521  -5.211  25.672  0.00  0.00    +0.007 C 
ATOM     45  CD1 LEU A   2       3.001  -6.409  23.532  0.00  0.00    +0.007 C 
ENDBRANCH  42  43
ENDBRANCH  29  42
ENDBRANCH  25  29
ENDBRANCH   1  27
BRANCH   1  46
ATOM     46  CB  GLN A   3       6.509  -1.058  21.044  0.00  0.00    +0.041 C 
BRANCH  46  47
ATOM     47  CG  GLN A   3       5.929  -1.386  19.670  0.00  0.00    +0.098 C 
BRANCH  47  48
ATOM     48  CD  GLN A   3       6.356  -0.412  18.593  0.00  0.00    +0.211 C 
ATOM     49  NE2 GLN A   3       5.375   0.068  17.781  0.00  0.00    -0.329 N 
ATOM     50 HE21 GLN A   3       5.653   0.713  17.053  0.00  0.00    +0.145 HD
ATOM     51 HE22 GLN A   3       4.420  -0.255  17.796  0.00  0.00    +0.145 HD
ATOM     52  OE1 GLN A   3       7.509  -0.010  18.482  0.00  0.00    -0.276 OA
ENDBRANCH  47  48
ENDBRANCH  46  47
ENDBRANCH   1  46
TORSDOF 21
ENDMDL
MODEL 9
REMARK VINA RESULT:      -6.3      1.826      3.638
REMARK  Name = TLQAIA-mmff94.pdb
REMARK  28 active torsions:
REMARK  status: ('A' for Active; 'I' for Inactive)
REMARK    1  A    between atoms: _1  and  _2
REMARK    2  A    between atoms: _2  and  _3
REMARK    3  A    between atoms: _2  and  _5
REMARK    4  A    between atoms: _5  and  _6
REMARK    5  A    between atoms: _5  and  _7
REMARK    6  A    between atoms: _15  and  _16
REMARK    7  A    between atoms: _16  and  _17
REMARK    8  A    between atoms: _16  and  _19
REMARK    9  A    between atoms: _19  and  _20
REMARK   10  A    between atoms: _20  and  _21
REMARK   11  A    between atoms: _20  and  _22
REMARK   12  A    between atoms: _34  and  _35
REMARK   13  A    between atoms: _35  and  _36
REMARK   14  A    between atoms: _35  and  _38
REMARK   15  A    between atoms: _38  and  _39
REMARK   16  A    between atoms: _39  and  _40
REMARK   17  A    between atoms: _51  and  _52
REMARK   18  A    between atoms: _52  and  _53
REMARK   19  A    between atoms: _52  and  _55
REMARK   20  A    between atoms: _61  and  _62
REMARK   21  A    between atoms: _62  and  _63
REMARK   22  A    between atoms: _62  and  _65
REMARK   23  A    between atoms: _65  and  _66
REMARK   24  A    between atoms: _65  and  _67
REMARK   25  A    between atoms: _66  and  _68
REMARK   26  A    between atoms: _80  and  _81
REMARK   27  A    between atoms: _81  and  _82
REMARK   28  A    between atoms: _81  and  _84
REMARK                            x       y       z     vdW  Elec       q    Type
REMARK                         _______ _______ _______ _____ _____    ______ ____
ROOT
ATOM      1  CA  GLN A   3       7.141  -2.381  25.948  0.00  0.00    +0.159 C 
ENDROOT
BRANCH   1   2
ATOM      2  C   GLN A   3       8.255  -1.329  26.107  0.00  0.00    +0.234 C 
ATOM      3  N   ALA A   4       8.931  -1.023  24.954  0.00  0.00    -0.303 N 
ATOM      4  H   ALA A   4       8.765  -1.539  24.094  0.00  0.00    +0.149 HD
ATOM      5  O   GLN A   3       8.474  -0.773  27.182  0.00  0.00    -0.274 OA
BRANCH   3   6
ATOM      6  CA  ALA A   4       9.915   0.050  24.882  0.00  0.00    +0.156 C 
ATOM      7  CB  ALA A   4      10.949  -0.200  23.794  0.00  0.00    +0.038 C 
BRANCH   6   8
ATOM      8  C   ALA A   4       9.145   1.347  24.593  0.00  0.00    +0.234 C 
ATOM      9  O   ALA A   4       9.225   1.921  23.508  0.00  0.00    -0.274 OA
ATOM     10  N   ILE A   5       8.371   1.801  25.631  0.00  0.00    -0.302 N 
ATOM     11  H   ILE A   5       8.388   1.330  26.532  0.00  0.00    +0.150 HD
BRANCH  10  12
ATOM     12  CA  ILE A   5       7.546   3.009  25.551  0.00  0.00    +0.162 C 
BRANCH  12  13
ATOM     13  C   ILE A   5       6.989   3.177  26.983  0.00  0.00    +0.234 C 
ATOM     14  N   ALA A   6       6.985   2.042  27.755  0.00  0.00    -0.305 N 
ATOM     15  H   ALA A   6       7.373   1.173  27.396  0.00  0.00    +0.149 HD
ATOM     16  O   ILE A   5       6.598   4.266  27.406  0.00  0.00    -0.274 OA
BRANCH  14  17
ATOM     17  CA  ALA A   6       6.606   2.060  29.160  0.00  0.00    +0.133 C 
ATOM     18  CB  ALA A   6       5.675   0.910  29.508  0.00  0.00    +0.035 C 
BRANCH  17  19
ATOM     19  C   ALA A   6       7.873   1.967  29.999  0.00  0.00    +0.245 C 
ATOM     20  O   ALA A   6       8.376   2.929  30.579  0.00  0.00    -0.299 OA
ENDBRANCH  17  19
ENDBRANCH  14  17
ENDBRANCH  12  13
BRANCH  12  21
ATOM     21  CB  ILE A   5       6.401   2.870  24.502  0.00  0.00    +0.015 C 
ATOM     22  CG2 ILE A   5       5.107   2.361  25.154  0.00  0.00    +0.010 C 
BRANCH  21  23
ATOM     23  CG1 ILE A   5       6.148   4.203  23.755  0.00  0.00    +0.002 C 
ATOM     24  CD1 ILE A   5       6.925   4.360  22.453  0.00  0.00    +0.004 C 
ENDBRANCH  21  23
ENDBRANCH  12  21
ENDBRANCH  10  12
ENDBRANCH   6   8
ENDBRANCH   3   6
ENDBRANCH   1   2
BRANCH   1  27
ATOM     25  C   LEU A   2       5.746  -2.636  23.907  0.00  0.00    +0.234 C 
ATOM     26  O   LEU A   2       4.693  -2.477  24.526  0.00  0.00    -0.274 OA
ATOM     27  N   GLN A   3       6.976  -2.590  24.511  0.00  0.00    -0.302 N 
ATOM     28  H   GLN A   3       7.823  -2.774  23.978  0.00  0.00    +0.150 HD
BRANCH  25  29
ATOM     29  CA  LEU A   2       5.774  -2.863  22.381  0.00  0.00    +0.159 C 
BRANCH  29  32
ATOM     30  C   THR A   1       7.209  -0.996  21.586  0.00  0.00    +0.233 C 
ATOM     31  O   THR A   1       8.240  -1.483  22.047  0.00  0.00    -0.274 OA
ATOM     32  N   LEU A   2       5.967  -1.550  21.772  0.00  0.00    -0.303 N 
ATOM     33  H   LEU A   2       5.182  -1.204  21.224  0.00  0.00    +0.149 HD
BRANCH  30  34
ATOM     34  CA  THR A   1       7.212   0.316  20.787  0.00  0.00    +0.166 C 
BRANCH  34  35
ATOM     35  N   THR A   1       8.608   0.836  20.707  0.00  0.00    -0.318 NA
ATOM     36  H1  THR A   1       8.615   1.617  20.048  0.00  0.00    +0.119 HD
ATOM     37  H2  THR A   1       8.812   1.277  21.612  0.00  0.00    +0.119 HD
ENDBRANCH  34  35
BRANCH  34  38
ATOM     38  CB  THR A   1       6.681   0.072  19.362  0.00  0.00    +0.137 C 
ATOM     39  CG2 THR A   1       5.568   1.035  18.972  0.00  0.00    +0.040 C 
BRANCH  38  40
ATOM     40  OG1 THR A   1       7.760   0.241  18.432  0.00  0.00    -0.390 OA
ATOM     41  HG1 THR A   1       8.527   0.487  18.989  0.00  0.00    +0.210 HD
ENDBRANCH  38  40
ENDBRANCH  34  38
ENDBRANCH  30  34
ENDBRANCH  29  32
BRANCH  29  42
ATOM     42  CB  LEU A   2       6.915  -3.827  22.023  0.00  0.00    +0.034 C 
BRANCH  42  43
ATOM     43  CG  LEU A   2       6.472  -5.272  21.722  0.00  0.00    -0.015 C 
ATOM     44  CD2 LEU A   2       5.133  -5.614  22.379  0.00  0.00    +0.007 C 
ATOM     45  CD1 LEU A   2       7.544  -6.252  22.208  0.00  0.00    +0.007 C 
ENDBRANCH  42  43
ENDBRANCH  29  42
ENDBRANCH  25  29
ENDBRANCH   1  27
BRANCH   1  46
ATOM     46  CB  GLN A   3       7.521  -3.699  26.642  0.00  0.00    +0.041 C 
BRANCH  46  47
ATOM     47  CG  GLN A   3       7.900  -4.818  25.673  0.00  0.00    +0.098 C 
BRANCH  47  48
ATOM     48  CD  GLN A   3       9.344  -4.757  25.225  0.00  0.00    +0.211 C 
ATOM     49  NE2 GLN A   3      10.181  -5.701  25.735  0.00  0.00    -0.329 N 
ATOM     50 HE21 GLN A   3      11.150  -5.662  25.448  0.00  0.00    +0.145 HD
ATOM     51 HE22 GLN A   3       9.919  -6.361  26.452  0.00  0.00    +0.145 HD
ATOM     52  OE1 GLN A   3       9.747  -3.950  24.394  0.00  0.00    -0.276 OA
ENDBRANCH  47  48
ENDBRANCH  46  47
ENDBRANCH   1  46
TORSDOF 21
ENDMDL
MODEL 10
REMARK VINA RESULT:      -6.3      1.507      4.481
REMARK  Name = TLQAIA-mmff94.pdb
REMARK  28 active torsions:
REMARK  status: ('A' for Active; 'I' for Inactive)
REMARK    1  A    between atoms: _1  and  _2
REMARK    2  A    between atoms: _2  and  _3
REMARK    3  A    between atoms: _2  and  _5
REMARK    4  A    between atoms: _5  and  _6
REMARK    5  A    between atoms: _5  and  _7
REMARK    6  A    between atoms: _15  and  _16
REMARK    7  A    between atoms: _16  and  _17
REMARK    8  A    between atoms: _16  and  _19
REMARK    9  A    between atoms: _19  and  _20
REMARK   10  A    between atoms: _20  and  _21
REMARK   11  A    between atoms: _20  and  _22
REMARK   12  A    between atoms: _34  and  _35
REMARK   13  A    between atoms: _35  and  _36
REMARK   14  A    between atoms: _35  and  _38
REMARK   15  A    between atoms: _38  and  _39
REMARK   16  A    between atoms: _39  and  _40
REMARK   17  A    between atoms: _51  and  _52
REMARK   18  A    between atoms: _52  and  _53
REMARK   19  A    between atoms: _52  and  _55
REMARK   20  A    between atoms: _61  and  _62
REMARK   21  A    between atoms: _62  and  _63
REMARK   22  A    between atoms: _62  and  _65
REMARK   23  A    between atoms: _65  and  _66
REMARK   24  A    between atoms: _65  and  _67
REMARK   25  A    between atoms: _66  and  _68
REMARK   26  A    between atoms: _80  and  _81
REMARK   27  A    between atoms: _81  and  _82
REMARK   28  A    between atoms: _81  and  _84
REMARK                            x       y       z     vdW  Elec       q    Type
REMARK                         _______ _______ _______ _____ _____    ______ ____
ROOT
ATOM      1  CA  GLN A   3       6.295  -3.458  23.045  0.00  0.00    +0.159 C 
ENDROOT
BRANCH   1   2
ATOM      2  C   GLN A   3       6.095  -3.042  24.515  0.00  0.00    +0.234 C 
ATOM      3  N   ALA A   4       6.849  -1.973  24.923  0.00  0.00    -0.303 N 
ATOM      4  H   ALA A   4       7.557  -1.566  24.316  0.00  0.00    +0.149 HD
ATOM      5  O   GLN A   3       5.276  -3.602  25.242  0.00  0.00    -0.274 OA
BRANCH   3   6
ATOM      6  CA  ALA A   4       6.688  -1.351  26.230  0.00  0.00    +0.156 C 
ATOM      7  CB  ALA A   4       8.017  -0.886  26.807  0.00  0.00    +0.038 C 
BRANCH   6   8
ATOM      8  C   ALA A   4       5.744  -0.154  26.045  0.00  0.00    +0.234 C 
ATOM      9  O   ALA A   4       4.546  -0.303  25.809  0.00  0.00    -0.274 OA
ATOM     10  N   ILE A   5       6.340   1.076  26.169  0.00  0.00    -0.302 N 
ATOM     11  H   ILE A   5       7.346   1.151  26.298  0.00  0.00    +0.150 HD
BRANCH  10  12
ATOM     12  CA  ILE A   5       5.610   2.340  26.046  0.00  0.00    +0.162 C 
BRANCH  12  13
ATOM     13  C   ILE A   5       6.139   2.950  24.727  0.00  0.00    +0.234 C 
ATOM     14  N   ALA A   6       7.133   3.886  24.863  0.00  0.00    -0.305 N 
ATOM     15  H   ALA A   6       7.509   4.110  25.782  0.00  0.00    +0.149 HD
ATOM     16  O   ILE A   5       5.709   2.597  23.628  0.00  0.00    -0.274 OA
BRANCH  14  17
ATOM     17  CA  ALA A   6       7.818   4.464  23.717  0.00  0.00    +0.133 C 
ATOM     18  CB  ALA A   6       7.036   5.621  23.116  0.00  0.00    +0.035 C 
BRANCH  17  19
ATOM     19  C   ALA A   6       9.187   4.951  24.172  0.00  0.00    +0.245 C 
ATOM     20  O   ALA A   6      10.238   4.642  23.612  0.00  0.00    -0.299 OA
ENDBRANCH  17  19
ENDBRANCH  14  17
ENDBRANCH  12  13
BRANCH  12  21
ATOM     21  CB  ILE A   5       5.864   3.285  27.259  0.00  0.00    +0.015 C 
ATOM     22  CG2 ILE A   5       4.556   3.614  27.993  0.00  0.00    +0.010 C 
BRANCH  21  23
ATOM     23  CG1 ILE A   5       6.903   2.686  28.239  0.00  0.00    +0.002 C 
ATOM     24  CD1 ILE A   5       6.352   2.343  29.619  0.00  0.00    +0.004 C 
ENDBRANCH  21  23
ENDBRANCH  12  21
ENDBRANCH  10  12
ENDBRANCH   6   8
ENDBRANCH   3   6
ENDBRANCH   1   2
BRANCH   1  27
ATOM     25  C   LEU A   2       6.144  -2.057  20.997  0.00  0.00    +0.234 C 
ATOM     26  O   LEU A   2       5.533  -2.923  20.370  0.00  0.00    -0.274 OA
ATOM     27  N   GLN A   3       6.538  -2.223  22.300  0.00  0.00    -0.302 N 
ATOM     28  H   GLN A   3       7.084  -1.507  22.773  0.00  0.00    +0.150 HD
BRANCH  25  29
ATOM     29  CA  LEU A   2       6.488  -0.685  20.380  0.00  0.00    +0.159 C 
BRANCH  29  32
ATOM     30  C   THR A   1       8.287   0.784  21.265  0.00  0.00    +0.233 C 
ATOM     31  O   THR A   1       7.554   1.767  21.356  0.00  0.00    -0.274 OA
ATOM     32  N   LEU A   2       7.879  -0.412  20.729  0.00  0.00    -0.303 N 
ATOM     33  H   LEU A   2       8.469  -1.233  20.842  0.00  0.00    +0.149 HD
BRANCH  30  34
ATOM     34  CA  THR A   1       9.757   0.819  21.710  0.00  0.00    +0.166 C 
BRANCH  34  35
ATOM     35  N   THR A   1      10.229   2.234  21.729  0.00  0.00    -0.318 NA
ATOM     36  H1  THR A   1      11.248   2.226  21.661  0.00  0.00    +0.119 HD
ATOM     37  H2  THR A   1       9.926   2.659  20.843  0.00  0.00    +0.119 HD
ENDBRANCH  34  35
BRANCH  34  38
ATOM     38  CB  THR A   1       9.899   0.219  23.122  0.00  0.00    +0.137 C 
ATOM     39  CG2 THR A   1       9.522   1.200  24.223  0.00  0.00    +0.040 C 
BRANCH  38  40
ATOM     40  OG1 THR A   1       9.035  -0.921  23.228  0.00  0.00    -0.390 OA
ATOM     41  HG1 THR A   1       8.945  -1.072  24.192  0.00  0.00    +0.210 HD
ENDBRANCH  38  40
ENDBRANCH  34  38
ENDBRANCH  30  34
ENDBRANCH  29  32
BRANCH  29  42
ATOM     42  CB  LEU A   2       6.286  -0.738  18.858  0.00  0.00    +0.034 C 
BRANCH  42  43
ATOM     43  CG  LEU A   2       5.536   0.469  18.262  0.00  0.00    -0.015 C 
ATOM     44  CD2 LEU A   2       6.472   1.416  17.509  0.00  0.00    +0.007 C 
ATOM     45  CD1 LEU A   2       4.824   1.238  19.379  0.00  0.00    +0.007 C 
ENDBRANCH  42  43
ENDBRANCH  29  42
ENDBRANCH  25  29
ENDBRANCH   1  27
BRANCH   1  46
ATOM     46  CB  GLN A   3       7.486  -4.417  22.897  0.00  0.00    +0.041 C 
BRANCH  46  47
ATOM     47  CG  GLN A   3       7.901  -5.090  24.205  0.00  0.00    +0.098 C 
BRANCH  47  48
ATOM     48  CD  GLN A   3       9.256  -4.639  24.706  0.00  0.00    +0.211 C 
ATOM     49  NE2 GLN A   3       9.929  -5.508  25.508  0.00  0.00    -0.329 N 
ATOM     50 HE21 GLN A   3      10.832  -5.211  25.855  0.00  0.00    +0.145 HD
ATOM     51 HE22 GLN A   3       9.542  -6.372  25.857  0.00  0.00    +0.145 HD
ATOM     52  OE1 GLN A   3       9.770  -3.580  24.364  0.00  0.00    -0.276 OA
ENDBRANCH  47  48
ENDBRANCH  46  47
ENDBRANCH   1  46
TORSDOF 21
ENDMDL
MODEL 11
REMARK VINA RESULT:      -6.3      1.761      6.626
REMARK  Name = TLQAIA-mmff94.pdb
REMARK  28 active torsions:
REMARK  status: ('A' for Active; 'I' for Inactive)
REMARK    1  A    between atoms: _1  and  _2
REMARK    2  A    between atoms: _2  and  _3
REMARK    3  A    between atoms: _2  and  _5
REMARK    4  A    between atoms: _5  and  _6
REMARK    5  A    between atoms: _5  and  _7
REMARK    6  A    between atoms: _15  and  _16
REMARK    7  A    between atoms: _16  and  _17
REMARK    8  A    between atoms: _16  and  _19
REMARK    9  A    between atoms: _19  and  _20
REMARK   10  A    between atoms: _20  and  _21
REMARK   11  A    between atoms: _20  and  _22
REMARK   12  A    between atoms: _34  and  _35
REMARK   13  A    between atoms: _35  and  _36
REMARK   14  A    between atoms: _35  and  _38
REMARK   15  A    between atoms: _38  and  _39
REMARK   16  A    between atoms: _39  and  _40
REMARK   17  A    between atoms: _51  and  _52
REMARK   18  A    between atoms: _52  and  _53
REMARK   19  A    between atoms: _52  and  _55
REMARK   20  A    between atoms: _61  and  _62
REMARK   21  A    between atoms: _62  and  _63
REMARK   22  A    between atoms: _62  and  _65
REMARK   23  A    between atoms: _65  and  _66
REMARK   24  A    between atoms: _65  and  _67
REMARK   25  A    between atoms: _66  and  _68
REMARK   26  A    between atoms: _80  and  _81
REMARK   27  A    between atoms: _81  and  _82
REMARK   28  A    between atoms: _81  and  _84
REMARK                            x       y       z     vdW  Elec       q    Type
REMARK                         _______ _______ _______ _____ _____    ______ ____
ROOT
ATOM      1  CA  GLN A   3       6.883  -0.288  26.978  0.00  0.00    +0.159 C 
ENDROOT
BRANCH   1   2
ATOM      2  C   GLN A   3       8.060  -1.240  26.698  0.00  0.00    +0.234 C 
ATOM      3  N   ALA A   4       7.710  -2.547  26.480  0.00  0.00    -0.303 N 
ATOM      4  H   ALA A   4       6.751  -2.863  26.604  0.00  0.00    +0.149 HD
ATOM      5  O   GLN A   3       9.219  -0.834  26.622  0.00  0.00    -0.274 OA
BRANCH   3   6
ATOM      6  CA  ALA A   4       8.671  -3.559  26.060  0.00  0.00    +0.156 C 
ATOM      7  CB  ALA A   4       8.245  -4.958  26.480  0.00  0.00    +0.038 C 
BRANCH   6   8
ATOM      8  C   ALA A   4       8.773  -3.473  24.530  0.00  0.00    +0.234 C 
ATOM      9  O   ALA A   4       9.857  -3.384  23.956  0.00  0.00    -0.274 OA
ATOM     10  N   ILE A   5       7.571  -3.508  23.869  0.00  0.00    -0.302 N 
ATOM     11  H   ILE A   5       6.697  -3.515  24.388  0.00  0.00    +0.150 HD
BRANCH  10  12
ATOM     12  CA  ILE A   5       7.454  -3.458  22.409  0.00  0.00    +0.162 C 
BRANCH  12  13
ATOM     13  C   ILE A   5       7.026  -2.001  22.119  0.00  0.00    +0.234 C 
ATOM     14  N   ALA A   6       6.995  -1.643  20.795  0.00  0.00    -0.305 N 
ATOM     15  H   ALA A   6       7.200  -2.328  20.071  0.00  0.00    +0.149 HD
ATOM     16  O   ILE A   5       6.712  -1.223  23.022  0.00  0.00    -0.274 OA
BRANCH  14  17
ATOM     17  CA  ALA A   6       6.500  -0.349  20.351  0.00  0.00    +0.133 C 
ATOM     18  CB  ALA A   6       7.635   0.621  20.064  0.00  0.00    +0.035 C 
BRANCH  17  19
ATOM     19  C   ALA A   6       5.673  -0.559  19.091  0.00  0.00    +0.245 C 
ATOM     20  O   ALA A   6       6.162  -0.821  17.992  0.00  0.00    -0.299 OA
ENDBRANCH  17  19
ENDBRANCH  14  17
ENDBRANCH  12  13
BRANCH  12  21
ATOM     21  CB  ILE A   5       6.410  -4.482  21.868  0.00  0.00    +0.015 C 
ATOM     22  CG2 ILE A   5       7.040  -5.868  21.673  0.00  0.00    +0.010 C 
BRANCH  21  23
ATOM     23  CG1 ILE A   5       5.169  -4.571  22.791  0.00  0.00    +0.002 C 
ATOM     24  CD1 ILE A   5       4.890  -5.962  23.347  0.00  0.00    +0.004 C 
ENDBRANCH  21  23
ENDBRANCH  12  21
ENDBRANCH  10  12
ENDBRANCH   6   8
ENDBRANCH   3   6
ENDBRANCH   1   2
BRANCH   1  27
ATOM     25  C   LEU A   2       6.705   1.852  25.725  0.00  0.00    +0.234 C 
ATOM     26  O   LEU A   2       6.933   2.534  26.725  0.00  0.00    -0.274 OA
ATOM     27  N   GLN A   3       6.677   0.481  25.751  0.00  0.00    -0.302 N 
ATOM     28  H   GLN A   3       6.437  -0.050  24.917  0.00  0.00    +0.150 HD
BRANCH  25  29
ATOM     29  CA  LEU A   2       6.468   2.485  24.337  0.00  0.00    +0.159 C 
BRANCH  29  32
ATOM     30  C   THR A   1       8.681   2.473  23.206  0.00  0.00    +0.233 C 
ATOM     31  O   THR A   1       8.984   3.596  23.605  0.00  0.00    -0.274 OA
ATOM     32  N   LEU A   2       7.458   1.895  23.440  0.00  0.00    -0.303 N 
ATOM     33  H   LEU A   2       7.330   0.906  23.240  0.00  0.00    +0.149 HD
BRANCH  30  34
ATOM     34  CA  THR A   1       9.640   1.621  22.360  0.00  0.00    +0.166 C 
BRANCH  34  35
ATOM     35  N   THR A   1      10.714   2.497  21.808  0.00  0.00    -0.318 NA
ATOM     36  H1  THR A   1      10.821   3.297  22.435  0.00  0.00    +0.119 HD
ATOM     37  H2  THR A   1      11.598   1.983  21.912  0.00  0.00    +0.119 HD
ENDBRANCH  34  35
BRANCH  34  38
ATOM     38  CB  THR A   1      10.280   0.521  23.228  0.00  0.00    +0.137 C 
ATOM     39  CG2 THR A   1      11.170   1.079  24.330  0.00  0.00    +0.040 C 
BRANCH  38  40
ATOM     40  OG1 THR A   1       9.236  -0.245  23.846  0.00  0.00    -0.390 OA
ATOM     41  HG1 THR A   1       9.189  -1.067  23.315  0.00  0.00    +0.210 HD
ENDBRANCH  38  40
ENDBRANCH  34  38
ENDBRANCH  30  34
ENDBRANCH  29  32
BRANCH  29  42
ATOM     42  CB  LEU A   2       5.035   2.188  23.872  0.00  0.00    +0.034 C 
BRANCH  42  43
ATOM     43  CG  LEU A   2       4.022   3.321  24.129  0.00  0.00    -0.015 C 
ATOM     44  CD2 LEU A   2       4.705   4.682  24.279  0.00  0.00    +0.007 C 
ATOM     45  CD1 LEU A   2       3.213   3.014  25.392  0.00  0.00    +0.007 C 
ENDBRANCH  42  43
ENDBRANCH  29  42
ENDBRANCH  25  29
ENDBRANCH   1  27
BRANCH   1  46
ATOM     46  CB  GLN A   3       5.611  -1.071  27.340  0.00  0.00    +0.041 C 
BRANCH  46  47
ATOM     47  CG  GLN A   3       4.672  -1.301  26.158  0.00  0.00    +0.098 C 
BRANCH  47  48
ATOM     48  CD  GLN A   3       4.245  -2.745  26.005  0.00  0.00    +0.211 C 
ATOM     49  NE2 GLN A   3       2.912  -2.974  25.858  0.00  0.00    -0.329 N 
ATOM     50 HE21 GLN A   3       2.617  -3.937  25.765  0.00  0.00    +0.145 HD
ATOM     51 HE22 GLN A   3       2.203  -2.261  25.940  0.00  0.00    +0.145 HD
ATOM     52  OE1 GLN A   3       5.047  -3.671  25.946  0.00  0.00    -0.276 OA
ENDBRANCH  47  48
ENDBRANCH  46  47
ENDBRANCH   1  46
TORSDOF 21
ENDMDL
MODEL 12
REMARK VINA RESULT:      -6.2      1.992      7.500
REMARK  Name = TLQAIA-mmff94.pdb
REMARK  28 active torsions:
REMARK  status: ('A' for Active; 'I' for Inactive)
REMARK    1  A    between atoms: _1  and  _2
REMARK    2  A    between atoms: _2  and  _3
REMARK    3  A    between atoms: _2  and  _5
REMARK    4  A    between atoms: _5  and  _6
REMARK    5  A    between atoms: _5  and  _7
REMARK    6  A    between atoms: _15  and  _16
REMARK    7  A    between atoms: _16  and  _17
REMARK    8  A    between atoms: _16  and  _19
REMARK    9  A    between atoms: _19  and  _20
REMARK   10  A    between atoms: _20  and  _21
REMARK   11  A    between atoms: _20  and  _22
REMARK   12  A    between atoms: _34  and  _35
REMARK   13  A    between atoms: _35  and  _36
REMARK   14  A    between atoms: _35  and  _38
REMARK   15  A    between atoms: _38  and  _39
REMARK   16  A    between atoms: _39  and  _40
REMARK   17  A    between atoms: _51  and  _52
REMARK   18  A    between atoms: _52  and  _53
REMARK   19  A    between atoms: _52  and  _55
REMARK   20  A    between atoms: _61  and  _62
REMARK   21  A    between atoms: _62  and  _63
REMARK   22  A    between atoms: _62  and  _65
REMARK   23  A    between atoms: _65  and  _66
REMARK   24  A    between atoms: _65  and  _67
REMARK   25  A    between atoms: _66  and  _68
REMARK   26  A    between atoms: _80  and  _81
REMARK   27  A    between atoms: _81  and  _82
REMARK   28  A    between atoms: _81  and  _84
REMARK                            x       y       z     vdW  Elec       q    Type
REMARK                         _______ _______ _______ _____ _____    ______ ____
ROOT
ATOM      1  CA  GLN A   3       6.821  -0.404  21.025  0.00  0.00    +0.159 C 
ENDROOT
BRANCH   1   2
ATOM      2  C   GLN A   3       6.832  -1.737  21.796  0.00  0.00    +0.234 C 
ATOM      3  N   ALA A   4       5.709  -2.508  21.637  0.00  0.00    -0.303 N 
ATOM      4  H   ALA A   4       4.899  -2.160  21.130  0.00  0.00    +0.149 HD
ATOM      5  O   GLN A   3       7.804  -2.097  22.458  0.00  0.00    -0.274 OA
BRANCH   3   6
ATOM      6  CA  ALA A   4       5.601  -3.859  22.171  0.00  0.00    +0.156 C 
ATOM      7  CB  ALA A   4       6.866  -4.669  21.932  0.00  0.00    +0.038 C 
BRANCH   6   8
ATOM      8  C   ALA A   4       5.334  -3.726  23.678  0.00  0.00    +0.234 C 
ATOM      9  O   ALA A   4       4.195  -3.601  24.127  0.00  0.00    -0.274 OA
ATOM     10  N   ILE A   5       6.455  -3.764  24.468  0.00  0.00    -0.302 N 
ATOM     11  H   ILE A   5       7.380  -3.802  24.049  0.00  0.00    +0.150 HD
BRANCH  10  12
ATOM     12  CA  ILE A   5       6.413  -3.672  25.930  0.00  0.00    +0.162 C 
BRANCH  12  13
ATOM     13  C   ILE A   5       6.893  -2.233  26.227  0.00  0.00    +0.234 C 
ATOM     14  N   ALA A   6       8.064  -1.859  25.617  0.00  0.00    -0.305 N 
ATOM     15  H   ALA A   6       8.538  -2.494  24.979  0.00  0.00    +0.149 HD
ATOM     16  O   ILE A   5       6.249  -1.468  26.948  0.00  0.00    -0.274 OA
BRANCH  14  17
ATOM     17  CA  ALA A   6       8.584  -0.504  25.700  0.00  0.00    +0.133 C 
ATOM     18  CB  ALA A   6       9.148  -0.198  27.078  0.00  0.00    +0.035 C 
BRANCH  17  19
ATOM     19  C   ALA A   6       9.677  -0.345  24.652  0.00  0.00    +0.245 C 
ATOM     20  O   ALA A   6       9.518   0.256  23.589  0.00  0.00    -0.299 OA
ENDBRANCH  17  19
ENDBRANCH  14  17
ENDBRANCH  12  13
BRANCH  12  21
ATOM     21  CB  ILE A   5       7.327  -4.735  26.611  0.00  0.00    +0.015 C 
ATOM     22  CG2 ILE A   5       6.498  -5.754  27.407  0.00  0.00    +0.010 C 
BRANCH  21  23
ATOM     23  CG1 ILE A   5       8.231  -5.455  25.579  0.00  0.00    +0.002 C 
ATOM     24  CD1 ILE A   5       9.711  -5.103  25.676  0.00  0.00    +0.004 C 
ENDBRANCH  21  23
ENDBRANCH  12  21
ENDBRANCH  10  12
ENDBRANCH   6   8
ENDBRANCH   3   6
ENDBRANCH   1   2
BRANCH   1  27
ATOM     25  C   LEU A   2       6.485   1.901  21.892  0.00  0.00    +0.234 C 
ATOM     26  O   LEU A   2       5.769   2.225  20.944  0.00  0.00    -0.274 OA
ATOM     27  N   GLN A   3       7.024   0.646  22.021  0.00  0.00    -0.302 N 
ATOM     28  H   GLN A   3       7.651   0.427  22.792  0.00  0.00    +0.150 HD
BRANCH  25  29
ATOM     29  CA  LEU A   2       6.808   2.874  23.046  0.00  0.00    +0.159 C 
BRANCH  29  32
ATOM     30  C   THR A   1       8.974   3.532  24.073  0.00  0.00    +0.233 C 
ATOM     31  O   THR A   1       8.463   3.858  25.142  0.00  0.00    -0.274 OA
ATOM     32  N   LEU A   2       8.245   3.127  22.982  0.00  0.00    -0.303 N 
ATOM     33  H   LEU A   2       8.728   2.704  22.192  0.00  0.00    +0.149 HD
BRANCH  30  34
ATOM     34  CA  THR A   1      10.492   3.590  23.842  0.00  0.00    +0.166 C 
BRANCH  34  35
ATOM     35  N   THR A   1      10.817   2.910  22.554  0.00  0.00    -0.318 NA
ATOM     36  H1  THR A   1      11.482   3.498  22.047  0.00  0.00    +0.119 HD
ATOM     37  H2  THR A   1      11.361   2.071  22.791  0.00  0.00    +0.119 HD
ENDBRANCH  34  35
BRANCH  34  38
ATOM     38  CB  THR A   1      10.964   5.055  23.774  0.00  0.00    +0.137 C 
ATOM     39  CG2 THR A   1      12.306   5.212  23.072  0.00  0.00    +0.040 C 
BRANCH  38  40
ATOM     40  OG1 THR A   1       9.992   5.820  23.049  0.00  0.00    -0.390 OA
ATOM     41  HG1 THR A   1      10.483   6.176  22.280  0.00  0.00    +0.210 HD
ENDBRANCH  38  40
ENDBRANCH  34  38
ENDBRANCH  30  34
ENDBRANCH  29  32
BRANCH  29  42
ATOM     42  CB  LEU A   2       5.998   4.167  22.873  0.00  0.00    +0.034 C 
BRANCH  42  43
ATOM     43  CG  LEU A   2       4.890   4.382  23.922  0.00  0.00    -0.015 C 
ATOM     44  CD2 LEU A   2       5.060   5.700  24.680  0.00  0.00    +0.007 C 
ATOM     45  CD1 LEU A   2       4.888   3.218  24.918  0.00  0.00    +0.007 C 
ENDBRANCH  42  43
ENDBRANCH  29  42
ENDBRANCH  25  29
ENDBRANCH   1  27
BRANCH   1  46
ATOM     46  CB  GLN A   3       7.937  -0.366  19.969  0.00  0.00    +0.041 C 
BRANCH  46  47
ATOM     47  CG  GLN A   3       7.503   0.242  18.637  0.00  0.00    +0.098 C 
BRANCH  47  48
ATOM     48  CD  GLN A   3       6.126  -0.206  18.196  0.00  0.00    +0.211 C 
ATOM     49  NE2 GLN A   3       5.140   0.730  18.235  0.00  0.00    -0.329 N 
ATOM     50 HE21 GLN A   3       4.214   0.437  17.950  0.00  0.00    +0.145 HD
ATOM     51 HE22 GLN A   3       5.251   1.654  18.624  0.00  0.00    +0.145 HD
ATOM     52  OE1 GLN A   3       5.903  -1.329  17.757  0.00  0.00    -0.276 OA
ENDBRANCH  47  48
ENDBRANCH  46  47
ENDBRANCH   1  46
TORSDOF 21
ENDMDL
MODEL 13
REMARK VINA RESULT:      -6.2      2.078      3.660
REMARK  Name = TLQAIA-mmff94.pdb
REMARK  28 active torsions:
REMARK  status: ('A' for Active; 'I' for Inactive)
REMARK    1  A    between atoms: _1  and  _2
REMARK    2  A    between atoms: _2  and  _3
REMARK    3  A    between atoms: _2  and  _5
REMARK    4  A    between atoms: _5  and  _6
REMARK    5  A    between atoms: _5  and  _7
REMARK    6  A    between atoms: _15  and  _16
REMARK    7  A    between atoms: _16  and  _17
REMARK    8  A    between atoms: _16  and  _19
REMARK    9  A    between atoms: _19  and  _20
REMARK   10  A    between atoms: _20  and  _21
REMARK   11  A    between atoms: _20  and  _22
REMARK   12  A    between atoms: _34  and  _35
REMARK   13  A    between atoms: _35  and  _36
REMARK   14  A    between atoms: _35  and  _38
REMARK   15  A    between atoms: _38  and  _39
REMARK   16  A    between atoms: _39  and  _40
REMARK   17  A    between atoms: _51  and  _52
REMARK   18  A    between atoms: _52  and  _53
REMARK   19  A    between atoms: _52  and  _55
REMARK   20  A    between atoms: _61  and  _62
REMARK   21  A    between atoms: _62  and  _63
REMARK   22  A    between atoms: _62  and  _65
REMARK   23  A    between atoms: _65  and  _66
REMARK   24  A    between atoms: _65  and  _67
REMARK   25  A    between atoms: _66  and  _68
REMARK   26  A    between atoms: _80  and  _81
REMARK   27  A    between atoms: _81  and  _82
REMARK   28  A    between atoms: _81  and  _84
REMARK                            x       y       z     vdW  Elec       q    Type
REMARK                         _______ _______ _______ _____ _____    ______ ____
ROOT
ATOM      1  CA  GLN A   3       4.861  -2.719  26.316  0.00  0.00    +0.159 C 
ENDROOT
BRANCH   1   2
ATOM      2  C   GLN A   3       5.436  -1.332  26.660  0.00  0.00    +0.234 C 
ATOM      3  N   ALA A   4       5.439  -0.432  25.626  0.00  0.00    -0.303 N 
ATOM      4  H   ALA A   4       5.176  -0.712  24.684  0.00  0.00    +0.149 HD
ATOM      5  O   GLN A   3       5.810  -1.048  27.797  0.00  0.00    -0.274 OA
BRANCH   3   6
ATOM      6  CA  ALA A   4       5.810   0.966  25.801  0.00  0.00    +0.156 C 
ATOM      7  CB  ALA A   4       7.286   1.126  26.131  0.00  0.00    +0.038 C 
BRANCH   6   8
ATOM      8  C   ALA A   4       5.481   1.686  24.485  0.00  0.00    +0.234 C 
ATOM      9  O   ALA A   4       4.341   2.070  24.222  0.00  0.00    -0.274 OA
ATOM     10  N   ILE A   5       6.549   1.866  23.643  0.00  0.00    -0.302 N 
ATOM     11  H   ILE A   5       7.458   1.473  23.872  0.00  0.00    +0.150 HD
BRANCH  10  12
ATOM     12  CA  ILE A   5       6.448   2.546  22.349  0.00  0.00    +0.162 C 
BRANCH  12  13
ATOM     13  C   ILE A   5       7.052   1.535  21.347  0.00  0.00    +0.234 C 
ATOM     14  N   ALA A   6       6.199   0.555  20.906  0.00  0.00    -0.305 N 
ATOM     15  H   ALA A   6       5.225   0.548  21.201  0.00  0.00    +0.149 HD
ATOM     16  O   ILE A   5       8.218   1.623  20.957  0.00  0.00    -0.274 OA
BRANCH  14  17
ATOM     17  CA  ALA A   6       6.579  -0.398  19.874  0.00  0.00    +0.133 C 
ATOM     18  CB  ALA A   6       5.858  -1.726  20.039  0.00  0.00    +0.035 C 
BRANCH  17  19
ATOM     19  C   ALA A   6       6.240   0.205  18.518  0.00  0.00    +0.245 C 
ATOM     20  O   ALA A   6       5.831  -0.455  17.563  0.00  0.00    -0.299 OA
ENDBRANCH  17  19
ENDBRANCH  14  17
ENDBRANCH  12  13
BRANCH  12  21
ATOM     21  CB  ILE A   5       7.221   3.900  22.336  0.00  0.00    +0.015 C 
ATOM     22  CG2 ILE A   5       6.257   5.092  22.419  0.00  0.00    +0.010 C 
BRANCH  21  23
ATOM     23  CG1 ILE A   5       8.271   3.967  23.472  0.00  0.00    +0.002 C 
ATOM     24  CD1 ILE A   5       8.832   5.359  23.738  0.00  0.00    +0.004 C 
ENDBRANCH  21  23
ENDBRANCH  12  21
ENDBRANCH  10  12
ENDBRANCH   6   8
ENDBRANCH   3   6
ENDBRANCH   1   2
BRANCH   1  27
ATOM     25  C   LEU A   2       6.687  -3.498  24.821  0.00  0.00    +0.234 C 
ATOM     26  O   LEU A   2       7.477  -3.646  25.753  0.00  0.00    -0.274 OA
ATOM     27  N   GLN A   3       5.397  -3.069  25.002  0.00  0.00    -0.302 N 
ATOM     28  H   GLN A   3       4.786  -2.911  24.204  0.00  0.00    +0.150 HD
BRANCH  25  29
ATOM     29  CA  LEU A   2       7.070  -3.823  23.361  0.00  0.00    +0.159 C 
BRANCH  29  32
ATOM     30  C   THR A   1       8.321  -1.687  23.130  0.00  0.00    +0.233 C 
ATOM     31  O   THR A   1       7.320  -0.988  23.278  0.00  0.00    -0.274 OA
ATOM     32  N   LEU A   2       8.281  -3.058  23.073  0.00  0.00    -0.303 N 
ATOM     33  H   LEU A   2       9.151  -3.583  23.127  0.00  0.00    +0.149 HD
BRANCH  30  34
ATOM     34  CA  THR A   1       9.720  -1.080  22.951  0.00  0.00    +0.166 C 
BRANCH  34  35
ATOM     35  N   THR A   1      10.007  -0.934  21.493  0.00  0.00    -0.318 NA
ATOM     36  H1  THR A   1       9.166  -0.565  21.043  0.00  0.00    +0.119 HD
ATOM     37  H2  THR A   1      10.690  -0.172  21.401  0.00  0.00    +0.119 HD
ENDBRANCH  34  35
BRANCH  34  38
ATOM     38  CB  THR A   1       9.790   0.305  23.621  0.00  0.00    +0.137 C 
ATOM     39  CG2 THR A   1      10.691   0.325  24.848  0.00  0.00    +0.040 C 
BRANCH  38  40
ATOM     40  OG1 THR A   1      10.309   1.250  22.674  0.00  0.00    -0.390 OA
ATOM     41  HG1 THR A   1      11.273   1.079  22.660  0.00  0.00    +0.210 HD
ENDBRANCH  38  40
ENDBRANCH  34  38
ENDBRANCH  30  34
ENDBRANCH  29  32
BRANCH  29  42
ATOM     42  CB  LEU A   2       7.306  -5.333  23.213  0.00  0.00    +0.034 C 
BRANCH  42  43
ATOM     43  CG  LEU A   2       6.287  -6.062  22.316  0.00  0.00    -0.015 C 
ATOM     44  CD2 LEU A   2       6.260  -5.497  20.894  0.00  0.00    +0.007 C 
ATOM     45  CD1 LEU A   2       4.889  -5.959  22.932  0.00  0.00    +0.007 C 
ENDBRANCH  42  43
ENDBRANCH  29  42
ENDBRANCH  25  29
ENDBRANCH   1  27
BRANCH   1  46
ATOM     46  CB  GLN A   3       5.275  -3.766  27.362  0.00  0.00    +0.041 C 
BRANCH  46  47
ATOM     47  CG  GLN A   3       4.419  -5.031  27.339  0.00  0.00    +0.098 C 
BRANCH  47  48
ATOM     48  CD  GLN A   3       5.232  -6.301  27.217  0.00  0.00    +0.211 C 
ATOM     49  NE2 GLN A   3       5.007  -7.261  28.155  0.00  0.00    -0.329 N 
ATOM     50 HE21 GLN A   3       5.553  -8.110  28.087  0.00  0.00    +0.145 HD
ATOM     51 HE22 GLN A   3       4.415  -7.136  28.962  0.00  0.00    +0.145 HD
ATOM     52  OE1 GLN A   3       6.008  -6.505  26.290  0.00  0.00    -0.276 OA
ENDBRANCH  47  48
ENDBRANCH  46  47
ENDBRANCH   1  46
TORSDOF 21
ENDMDL
MODEL 14
REMARK VINA RESULT:      -6.2      2.353      6.986
REMARK  Name = TLQAIA-mmff94.pdb
REMARK  28 active torsions:
REMARK  status: ('A' for Active; 'I' for Inactive)
REMARK    1  A    between atoms: _1  and  _2
REMARK    2  A    between atoms: _2  and  _3
REMARK    3  A    between atoms: _2  and  _5
REMARK    4  A    between atoms: _5  and  _6
REMARK    5  A    between atoms: _5  and  _7
REMARK    6  A    between atoms: _15  and  _16
REMARK    7  A    between atoms: _16  and  _17
REMARK    8  A    between atoms: _16  and  _19
REMARK    9  A    between atoms: _19  and  _20
REMARK   10  A    between atoms: _20  and  _21
REMARK   11  A    between atoms: _20  and  _22
REMARK   12  A    between atoms: _34  and  _35
REMARK   13  A    between atoms: _35  and  _36
REMARK   14  A    between atoms: _35  and  _38
REMARK   15  A    between atoms: _38  and  _39
REMARK   16  A    between atoms: _39  and  _40
REMARK   17  A    between atoms: _51  and  _52
REMARK   18  A    between atoms: _52  and  _53
REMARK   19  A    between atoms: _52  and  _55
REMARK   20  A    between atoms: _61  and  _62
REMARK   21  A    between atoms: _62  and  _63
REMARK   22  A    between atoms: _62  and  _65
REMARK   23  A    between atoms: _65  and  _66
REMARK   24  A    between atoms: _65  and  _67
REMARK   25  A    between atoms: _66  and  _68
REMARK   26  A    between atoms: _80  and  _81
REMARK   27  A    between atoms: _81  and  _82
REMARK   28  A    between atoms: _81  and  _84
REMARK                            x       y       z     vdW  Elec       q    Type
REMARK                         _______ _______ _______ _____ _____    ______ ____
ROOT
ATOM      1  CA  GLN A   3       9.626  -0.858  23.954  0.00  0.00    +0.159 C 
ENDROOT
BRANCH   1   2
ATOM      2  C   GLN A   3       8.980  -2.063  24.662  0.00  0.00    +0.234 C 
ATOM      3  N   ALA A   4       9.319  -3.288  24.148  0.00  0.00    -0.303 N 
ATOM      4  H   ALA A   4       9.873  -3.367  23.299  0.00  0.00    +0.149 HD
ATOM      5  O   GLN A   3       8.258  -1.927  25.649  0.00  0.00    -0.274 OA
BRANCH   3   6
ATOM      6  CA  ALA A   4       8.921  -4.542  24.775  0.00  0.00    +0.156 C 
ATOM      7  CB  ALA A   4       8.977  -4.462  26.293  0.00  0.00    +0.038 C 
BRANCH   6   8
ATOM      8  C   ALA A   4       7.487  -4.839  24.313  0.00  0.00    +0.234 C 
ATOM      9  O   ALA A   4       7.254  -5.439  23.264  0.00  0.00    -0.274 OA
ATOM     10  N   ILE A   5       6.504  -4.390  25.158  0.00  0.00    -0.302 N 
ATOM     11  H   ILE A   5       6.742  -3.840  25.980  0.00  0.00    +0.150 HD
BRANCH  10  12
ATOM     12  CA  ILE A   5       5.074  -4.589  24.908  0.00  0.00    +0.162 C 
BRANCH  12  13
ATOM     13  C   ILE A   5       4.429  -3.253  25.342  0.00  0.00    +0.234 C 
ATOM     14  N   ALA A   6       5.255  -2.385  26.011  0.00  0.00    -0.305 N 
ATOM     15  H   ALA A   6       6.236  -2.614  26.155  0.00  0.00    +0.149 HD
ATOM     16  O   ILE A   5       3.255  -2.982  25.081  0.00  0.00    -0.274 OA
BRANCH  14  17
ATOM     17  CA  ALA A   6       4.834  -1.042  26.380  0.00  0.00    +0.133 C 
ATOM     18  CB  ALA A   6       4.922  -0.815  27.881  0.00  0.00    +0.035 C 
BRANCH  17  19
ATOM     19  C   ALA A   6       5.728  -0.045  25.656  0.00  0.00    +0.245 C 
ATOM     20  O   ALA A   6       5.587   0.261  24.473  0.00  0.00    -0.299 OA
ENDBRANCH  17  19
ENDBRANCH  14  17
ENDBRANCH  12  13
BRANCH  12  21
ATOM     21  CB  ILE A   5       4.500  -5.794  25.713  0.00  0.00    +0.015 C 
ATOM     22  CG2 ILE A   5       4.318  -7.027  24.816  0.00  0.00    +0.010 C 
BRANCH  21  23
ATOM     23  CG1 ILE A   5       5.387  -6.135  26.937  0.00  0.00    +0.002 C 
ATOM     24  CD1 ILE A   5       4.916  -5.526  28.252  0.00  0.00    +0.004 C 
ENDBRANCH  21  23
ENDBRANCH  12  21
ENDBRANCH  10  12
ENDBRANCH   6   8
ENDBRANCH   3   6
ENDBRANCH   1   2
BRANCH   1  27
ATOM     25  C   LEU A   2       8.572   0.174  21.953  0.00  0.00    +0.234 C 
ATOM     26  O   LEU A   2       9.506  -0.144  21.216  0.00  0.00    -0.274 OA
ATOM     27  N   GLN A   3       8.539  -0.143  23.287  0.00  0.00    -0.302 N 
ATOM     28  H   GLN A   3       7.776   0.177  23.878  0.00  0.00    +0.150 HD
BRANCH  25  29
ATOM     29  CA  LEU A   2       7.332   0.928  21.428  0.00  0.00    +0.159 C 
BRANCH  29  32
ATOM     30  C   THR A   1       6.449   3.132  22.163  0.00  0.00    +0.233 C 
ATOM     31  O   THR A   1       5.273   2.797  22.035  0.00  0.00    -0.274 OA
ATOM     32  N   LEU A   2       7.504   2.325  21.816  0.00  0.00    -0.303 N 
ATOM     33  H   LEU A   2       8.444   2.584  22.108  0.00  0.00    +0.149 HD
BRANCH  30  34
ATOM     34  CA  THR A   1       6.850   4.518  22.692  0.00  0.00    +0.166 C 
BRANCH  34  35
ATOM     35  N   THR A   1       6.067   5.562  21.968  0.00  0.00    -0.318 NA
ATOM     36  H1  THR A   1       5.907   5.231  21.015  0.00  0.00    +0.119 HD
ATOM     37  H2  THR A   1       5.128   5.571  22.387  0.00  0.00    +0.119 HD
ENDBRANCH  34  35
BRANCH  34  38
ATOM     38  CB  THR A   1       6.554   4.618  24.200  0.00  0.00    +0.137 C 
ATOM     39  CG2 THR A   1       5.302   5.428  24.506  0.00  0.00    +0.040 C 
BRANCH  38  40
ATOM     40  OG1 THR A   1       6.365   3.295  24.722  0.00  0.00    -0.390 OA
ATOM     41  HG1 THR A   1       5.771   3.418  25.492  0.00  0.00    +0.210 HD
ENDBRANCH  38  40
ENDBRANCH  34  38
ENDBRANCH  30  34
ENDBRANCH  29  32
BRANCH  29  42
ATOM     42  CB  LEU A   2       7.240   0.771  19.904  0.00  0.00    +0.034 C 
BRANCH  42  43
ATOM     43  CG  LEU A   2       5.883   0.253  19.387  0.00  0.00    -0.015 C 
ATOM     44  CD2 LEU A   2       6.044  -0.729  18.225  0.00  0.00    +0.007 C 
ATOM     45  CD1 LEU A   2       5.016   1.434  18.941  0.00  0.00    +0.007 C 
ENDBRANCH  42  43
ENDBRANCH  29  42
ENDBRANCH  25  29
ENDBRANCH   1  27
BRANCH   1  46
ATOM     46  CB  GLN A   3      10.334   0.062  24.962  0.00  0.00    +0.041 C 
BRANCH  46  47
ATOM     47  CG  GLN A   3      11.156   1.172  24.309  0.00  0.00    +0.098 C 
BRANCH  47  48
ATOM     48  CD  GLN A   3      10.350   2.418  24.013  0.00  0.00    +0.211 C 
ATOM     49  NE2 GLN A   3      10.874   3.280  23.100  0.00  0.00    -0.329 N 
ATOM     50 HE21 GLN A   3      10.346   4.121  22.903  0.00  0.00    +0.145 HD
ATOM     51 HE22 GLN A   3      11.792   3.184  22.693  0.00  0.00    +0.145 HD
ATOM     52  OE1 GLN A   3       9.248   2.628  24.507  0.00  0.00    -0.276 OA
ENDBRANCH  47  48
ENDBRANCH  46  47
ENDBRANCH   1  46
TORSDOF 21
ENDMDL
MODEL 15
REMARK VINA RESULT:      -6.2      2.170      5.952
REMARK  Name = TLQAIA-mmff94.pdb
REMARK  28 active torsions:
REMARK  status: ('A' for Active; 'I' for Inactive)
REMARK    1  A    between atoms: _1  and  _2
REMARK    2  A    between atoms: _2  and  _3
REMARK    3  A    between atoms: _2  and  _5
REMARK    4  A    between atoms: _5  and  _6
REMARK    5  A    between atoms: _5  and  _7
REMARK    6  A    between atoms: _15  and  _16
REMARK    7  A    between atoms: _16  and  _17
REMARK    8  A    between atoms: _16  and  _19
REMARK    9  A    between atoms: _19  and  _20
REMARK   10  A    between atoms: _20  and  _21
REMARK   11  A    between atoms: _20  and  _22
REMARK   12  A    between atoms: _34  and  _35
REMARK   13  A    between atoms: _35  and  _36
REMARK   14  A    between atoms: _35  and  _38
REMARK   15  A    between atoms: _38  and  _39
REMARK   16  A    between atoms: _39  and  _40
REMARK   17  A    between atoms: _51  and  _52
REMARK   18  A    between atoms: _52  and  _53
REMARK   19  A    between atoms: _52  and  _55
REMARK   20  A    between atoms: _61  and  _62
REMARK   21  A    between atoms: _62  and  _63
REMARK   22  A    between atoms: _62  and  _65
REMARK   23  A    between atoms: _65  and  _66
REMARK   24  A    between atoms: _65  and  _67
REMARK   25  A    between atoms: _66  and  _68
REMARK   26  A    between atoms: _80  and  _81
REMARK   27  A    between atoms: _81  and  _82
REMARK   28  A    between atoms: _81  and  _84
REMARK                            x       y       z     vdW  Elec       q    Type
REMARK                         _______ _______ _______ _____ _____    ______ ____
ROOT
ATOM      1  CA  GLN A   3       7.018  -0.897  20.992  0.00  0.00    +0.159 C 
ENDROOT
BRANCH   1   2
ATOM      2  C   GLN A   3       7.246   0.604  21.249  0.00  0.00    +0.234 C 
ATOM      3  N   ALA A   4       6.232   1.238  21.918  0.00  0.00    -0.303 N 
ATOM      4  H   ALA A   4       5.359   0.760  22.126  0.00  0.00    +0.149 HD
ATOM      5  O   GLN A   3       8.290   1.167  20.922  0.00  0.00    -0.274 OA
BRANCH   3   6
ATOM      6  CA  ALA A   4       6.334   2.618  22.375  0.00  0.00    +0.156 C 
ATOM      7  CB  ALA A   4       4.992   3.333  22.331  0.00  0.00    +0.038 C 
BRANCH   6   8
ATOM      8  C   ALA A   4       6.865   2.577  23.815  0.00  0.00    +0.234 C 
ATOM      9  O   ALA A   4       7.624   3.441  24.253  0.00  0.00    -0.274 OA
ATOM     10  N   ILE A   5       6.424   1.513  24.562  0.00  0.00    -0.302 N 
ATOM     11  H   ILE A   5       5.852   0.788  24.138  0.00  0.00    +0.150 HD
BRANCH  10  12
ATOM     12  CA  ILE A   5       6.800   1.303  25.962  0.00  0.00    +0.162 C 
BRANCH  12  13
ATOM     13  C   ILE A   5       8.041   0.385  25.882  0.00  0.00    +0.234 C 
ATOM     14  N   ALA A   6       8.709   0.393  24.683  0.00  0.00    -0.305 N 
ATOM     15  H   ALA A   6       8.409   1.008  23.930  0.00  0.00    +0.149 HD
ATOM     16  O   ILE A   5       8.416  -0.289  26.844  0.00  0.00    -0.274 OA
BRANCH  14  17
ATOM     17  CA  ALA A   6       9.960  -0.322  24.487  0.00  0.00    +0.133 C 
ATOM     18  CB  ALA A   6      10.011  -1.012  23.133  0.00  0.00    +0.035 C 
BRANCH  17  19
ATOM     19  C   ALA A   6      11.104   0.677  24.597  0.00  0.00    +0.245 C 
ATOM     20  O   ALA A   6      11.059   1.816  24.133  0.00  0.00    -0.299 OA
ENDBRANCH  17  19
ENDBRANCH  14  17
ENDBRANCH  12  13
BRANCH  12  21
ATOM     21  CB  ILE A   5       5.651   0.645  26.785  0.00  0.00    +0.015 C 
ATOM     22  CG2 ILE A   5       4.494   1.630  27.012  0.00  0.00    +0.010 C 
BRANCH  21  23
ATOM     23  CG1 ILE A   5       5.138  -0.652  26.112  0.00  0.00    +0.002 C 
ATOM     24  CD1 ILE A   5       4.800  -1.780  27.080  0.00  0.00    +0.004 C 
ENDBRANCH  21  23
ENDBRANCH  12  21
ENDBRANCH  10  12
ENDBRANCH   6   8
ENDBRANCH   3   6
ENDBRANCH   1   2
BRANCH   1  27
ATOM     25  C   LEU A   2       7.001  -2.717  22.684  0.00  0.00    +0.234 C 
ATOM     26  O   LEU A   2       7.761  -3.428  22.025  0.00  0.00    -0.274 OA
ATOM     27  N   GLN A   3       6.602  -1.473  22.270  0.00  0.00    -0.302 N 
ATOM     28  H   GLN A   3       5.935  -0.933  22.816  0.00  0.00    +0.150 HD
BRANCH  25  29
ATOM     29  CA  LEU A   2       6.461  -3.153  24.063  0.00  0.00    +0.159 C 
BRANCH  29  32
ATOM     30  C   THR A   1       4.369  -4.493  23.980  0.00  0.00    +0.233 C 
ATOM     31  O   THR A   1       3.673  -3.587  24.436  0.00  0.00    -0.274 OA
ATOM     32  N   LEU A   2       5.732  -4.400  23.845  0.00  0.00    -0.303 N 
ATOM     33  H   LEU A   2       6.226  -5.104  23.303  0.00  0.00    +0.149 HD
BRANCH  30  34
ATOM     34  CA  THR A   1       3.775  -5.844  23.554  0.00  0.00    +0.166 C 
BRANCH  34  35
ATOM     35  N   THR A   1       4.303  -6.207  22.206  0.00  0.00    -0.318 NA
ATOM     36  H1  THR A   1       3.618  -5.908  21.509  0.00  0.00    +0.119 HD
ATOM     37  H2  THR A   1       5.113  -5.599  22.032  0.00  0.00    +0.119 HD
ENDBRANCH  34  35
BRANCH  34  38
ATOM     38  CB  THR A   1       4.167  -6.940  24.563  0.00  0.00    +0.137 C 
ATOM     39  CG2 THR A   1       3.877  -6.548  26.005  0.00  0.00    +0.040 C 
BRANCH  38  40
ATOM     40  OG1 THR A   1       3.421  -8.129  24.267  0.00  0.00    -0.390 OA
ATOM     41  HG1 THR A   1       2.888  -8.291  25.073  0.00  0.00    +0.210 HD
ENDBRANCH  38  40
ENDBRANCH  34  38
ENDBRANCH  30  34
ENDBRANCH  29  32
BRANCH  29  42
ATOM     42  CB  LEU A   2       7.631  -3.345  25.039  0.00  0.00    +0.034 C 
BRANCH  42  43
ATOM     43  CG  LEU A   2       7.882  -4.803  25.470  0.00  0.00    -0.015 C 
ATOM     44  CD2 LEU A   2       7.465  -5.057  26.920  0.00  0.00    +0.007 C 
ATOM     45  CD1 LEU A   2       9.365  -5.145  25.299  0.00  0.00    +0.007 C 
ENDBRANCH  42  43
ENDBRANCH  29  42
ENDBRANCH  25  29
ENDBRANCH   1  27
BRANCH   1  46
ATOM     46  CB  GLN A   3       5.934  -1.119  19.925  0.00  0.00    +0.041 C 
BRANCH  46  47
ATOM     47  CG  GLN A   3       6.233  -0.434  18.593  0.00  0.00    +0.098 C 
BRANCH  47  48
ATOM     48  CD  GLN A   3       5.492   0.874  18.413  0.00  0.00    +0.211 C 
ATOM     49  NE2 GLN A   3       5.842   1.630  17.337  0.00  0.00    -0.329 N 
ATOM     50 HE21 GLN A   3       5.359   2.510  17.214  0.00  0.00    +0.145 HD
ATOM     51 HE22 GLN A   3       6.615   1.418  16.724  0.00  0.00    +0.145 HD
ATOM     52  OE1 GLN A   3       4.574   1.222  19.148  0.00  0.00    -0.276 OA
ENDBRANCH  47  48
ENDBRANCH  46  47
ENDBRANCH   1  46
TORSDOF 21
ENDMDL
MODEL 16
REMARK VINA RESULT:      -6.1      2.118      5.183
REMARK  Name = TLQAIA-mmff94.pdb
REMARK  28 active torsions:
REMARK  status: ('A' for Active; 'I' for Inactive)
REMARK    1  A    between atoms: _1  and  _2
REMARK    2  A    between atoms: _2  and  _3
REMARK    3  A    between atoms: _2  and  _5
REMARK    4  A    between atoms: _5  and  _6
REMARK    5  A    between atoms: _5  and  _7
REMARK    6  A    between atoms: _15  and  _16
REMARK    7  A    between atoms: _16  and  _17
REMARK    8  A    between atoms: _16  and  _19
REMARK    9  A    between atoms: _19  and  _20
REMARK   10  A    between atoms: _20  and  _21
REMARK   11  A    between atoms: _20  and  _22
REMARK   12  A    between atoms: _34  and  _35
REMARK   13  A    between atoms: _35  and  _36
REMARK   14  A    between atoms: _35  and  _38
REMARK   15  A    between atoms: _38  and  _39
REMARK   16  A    between atoms: _39  and  _40
REMARK   17  A    between atoms: _51  and  _52
REMARK   18  A    between atoms: _52  and  _53
REMARK   19  A    between atoms: _52  and  _55
REMARK   20  A    between atoms: _61  and  _62
REMARK   21  A    between atoms: _62  and  _63
REMARK   22  A    between atoms: _62  and  _65
REMARK   23  A    between atoms: _65  and  _66
REMARK   24  A    between atoms: _65  and  _67
REMARK   25  A    between atoms: _66  and  _68
REMARK   26  A    between atoms: _80  and  _81
REMARK   27  A    between atoms: _81  and  _82
REMARK   28  A    between atoms: _81  and  _84
REMARK                            x       y       z     vdW  Elec       q    Type
REMARK                         _______ _______ _______ _____ _____    ______ ____
ROOT
ATOM      1  CA  GLN A   3       9.576  -1.003  25.249  0.00  0.00    +0.159 C 
ENDROOT
BRANCH   1   2
ATOM      2  C   GLN A   3       8.400  -0.491  26.102  0.00  0.00    +0.234 C 
ATOM      3  N   ALA A   4       7.727   0.582  25.579  0.00  0.00    -0.303 N 
ATOM      4  H   ALA A   4       8.061   1.056  24.743  0.00  0.00    +0.149 HD
ATOM      5  O   GLN A   3       8.066  -1.048  27.147  0.00  0.00    -0.274 OA
BRANCH   3   6
ATOM      6  CA  ALA A   4       6.505   1.109  26.172  0.00  0.00    +0.156 C 
ATOM      7  CB  ALA A   4       6.785   2.260  27.127  0.00  0.00    +0.038 C 
BRANCH   6   8
ATOM      8  C   ALA A   4       5.614   1.586  25.015  0.00  0.00    +0.234 C 
ATOM      9  O   ALA A   4       4.395   1.425  25.026  0.00  0.00    -0.274 OA
ATOM     10  N   ILE A   5       6.284   2.201  23.987  0.00  0.00    -0.302 N 
ATOM     11  H   ILE A   5       7.299   2.252  23.991  0.00  0.00    +0.150 HD
BRANCH  10  12
ATOM     12  CA  ILE A   5       5.615   2.743  22.802  0.00  0.00    +0.162 C 
BRANCH  12  13
ATOM     13  C   ILE A   5       6.522   2.305  21.629  0.00  0.00    +0.234 C 
ATOM     14  N   ALA A   6       5.998   1.344  20.801  0.00  0.00    -0.305 N 
ATOM     15  H   ALA A   6       5.054   0.995  20.948  0.00  0.00    +0.149 HD
ATOM     16  O   ILE A   5       7.631   2.807  21.440  0.00  0.00    -0.274 OA
BRANCH  14  17
ATOM     17  CA  ALA A   6       6.674   0.912  19.587  0.00  0.00    +0.133 C 
ATOM     18  CB  ALA A   6       7.717  -0.157  19.871  0.00  0.00    +0.035 C 
BRANCH  17  19
ATOM     19  C   ALA A   6       5.629   0.367  18.625  0.00  0.00    +0.245 C 
ATOM     20  O   ALA A   6       5.902  -0.330  17.648  0.00  0.00    -0.299 OA
ENDBRANCH  17  19
ENDBRANCH  14  17
ENDBRANCH  12  13
BRANCH  12  21
ATOM     21  CB  ILE A   5       5.469   4.294  22.867  0.00  0.00    +0.015 C 
ATOM     22  CG2 ILE A   5       3.993   4.712  22.937  0.00  0.00    +0.010 C 
BRANCH  21  23
ATOM     23  CG1 ILE A   5       6.262   4.890  24.057  0.00  0.00    +0.002 C 
ATOM     24  CD1 ILE A   5       7.436   5.776  23.658  0.00  0.00    +0.004 C 
ENDBRANCH  21  23
ENDBRANCH  12  21
ENDBRANCH  10  12
ENDBRANCH   6   8
ENDBRANCH   3   6
ENDBRANCH   1   2
BRANCH   1  27
ATOM     25  C   LEU A   2       8.064  -2.721  24.279  0.00  0.00    +0.234 C 
ATOM     26  O   LEU A   2       7.206  -1.890  23.977  0.00  0.00    -0.274 OA
ATOM     27  N   GLN A   3       9.247  -2.379  24.882  0.00  0.00    -0.302 N 
ATOM     28  H   GLN A   3       9.912  -3.096  25.163  0.00  0.00    +0.150 HD
BRANCH  25  29
ATOM     29  CA  LEU A   2       7.897  -4.223  23.967  0.00  0.00    +0.159 C 
BRANCH  29  32
ATOM     30  C   THR A   1       6.797  -5.346  25.893  0.00  0.00    +0.233 C 
ATOM     31  O   THR A   1       7.855  -5.763  26.361  0.00  0.00    -0.274 OA
ATOM     32  N   LEU A   2       6.716  -4.668  24.702  0.00  0.00    -0.303 N 
ATOM     33  H   LEU A   2       5.848  -4.198  24.457  0.00  0.00    +0.149 HD
BRANCH  30  34
ATOM     34  CA  THR A   1       5.448  -5.586  26.586  0.00  0.00    +0.166 C 
BRANCH  34  35
ATOM     35  N   THR A   1       5.517  -6.857  27.366  0.00  0.00    -0.318 NA
ATOM     36  H1  THR A   1       5.663  -7.623  26.705  0.00  0.00    +0.119 HD
ATOM     37  H2  THR A   1       6.392  -6.826  27.904  0.00  0.00    +0.119 HD
ENDBRANCH  34  35
BRANCH  34  38
ATOM     38  CB  THR A   1       5.127  -4.422  27.544  0.00  0.00    +0.137 C 
ATOM     39  CG2 THR A   1       5.139  -4.840  29.008  0.00  0.00    +0.040 C 
BRANCH  38  40
ATOM     40  OG1 THR A   1       6.113  -3.395  27.367  0.00  0.00    -0.390 OA
ATOM     41  HG1 THR A   1       6.547  -3.319  28.242  0.00  0.00    +0.210 HD
ENDBRANCH  38  40
ENDBRANCH  34  38
ENDBRANCH  30  34
ENDBRANCH  29  32
BRANCH  29  42
ATOM     42  CB  LEU A   2       7.730  -4.421  22.454  0.00  0.00    +0.034 C 
BRANCH  42  43
ATOM     43  CG  LEU A   2       6.278  -4.639  21.986  0.00  0.00    -0.015 C 
ATOM     44  CD2 LEU A   2       6.155  -5.815  21.015  0.00  0.00    +0.007 C 
ATOM     45  CD1 LEU A   2       5.755  -3.366  21.314  0.00  0.00    +0.007 C 
ENDBRANCH  42  43
ENDBRANCH  29  42
ENDBRANCH  25  29
ENDBRANCH   1  27
BRANCH   1  46
ATOM     46  CB  GLN A   3       9.762  -0.142  23.989  0.00  0.00    +0.041 C 
BRANCH  46  47
ATOM     47  CG  GLN A   3      10.734   1.022  24.178  0.00  0.00    +0.098 C 
BRANCH  47  48
ATOM     48  CD  GLN A   3      10.131   2.366  23.829  0.00  0.00    +0.211 C 
ATOM     49  NE2 GLN A   3      10.503   2.910  22.638  0.00  0.00    -0.329 N 
ATOM     50 HE21 GLN A   3      10.112   3.812  22.401  0.00  0.00    +0.145 HD
ATOM     51 HE22 GLN A   3      11.214   2.522  22.037  0.00  0.00    +0.145 HD
ATOM     52  OE1 GLN A   3       9.297   2.923  24.535  0.00  0.00    -0.276 OA
ENDBRANCH  47  48
ENDBRANCH  46  47
ENDBRANCH   1  46
TORSDOF 21
ENDMDL
MODEL 17
REMARK VINA RESULT:      -6.1      2.526      4.827
REMARK  Name = TLQAIA-mmff94.pdb
REMARK  28 active torsions:
REMARK  status: ('A' for Active; 'I' for Inactive)
REMARK    1  A    between atoms: _1  and  _2
REMARK    2  A    between atoms: _2  and  _3
REMARK    3  A    between atoms: _2  and  _5
REMARK    4  A    between atoms: _5  and  _6
REMARK    5  A    between atoms: _5  and  _7
REMARK    6  A    between atoms: _15  and  _16
REMARK    7  A    between atoms: _16  and  _17
REMARK    8  A    between atoms: _16  and  _19
REMARK    9  A    between atoms: _19  and  _20
REMARK   10  A    between atoms: _20  and  _21
REMARK   11  A    between atoms: _20  and  _22
REMARK   12  A    between atoms: _34  and  _35
REMARK   13  A    between atoms: _35  and  _36
REMARK   14  A    between atoms: _35  and  _38
REMARK   15  A    between atoms: _38  and  _39
REMARK   16  A    between atoms: _39  and  _40
REMARK   17  A    between atoms: _51  and  _52
REMARK   18  A    between atoms: _52  and  _53
REMARK   19  A    between atoms: _52  and  _55
REMARK   20  A    between atoms: _61  and  _62
REMARK   21  A    between atoms: _62  and  _63
REMARK   22  A    between atoms: _62  and  _65
REMARK   23  A    between atoms: _65  and  _66
REMARK   24  A    between atoms: _65  and  _67
REMARK   25  A    between atoms: _66  and  _68
REMARK   26  A    between atoms: _80  and  _81
REMARK   27  A    between atoms: _81  and  _82
REMARK   28  A    between atoms: _81  and  _84
REMARK                            x       y       z     vdW  Elec       q    Type
REMARK                         _______ _______ _______ _____ _____    ______ ____
ROOT
ATOM      1  CA  GLN A   3       6.679  -1.622  26.671  0.00  0.00    +0.159 C 
ENDROOT
BRANCH   1   2
ATOM      2  C   GLN A   3       5.597  -0.792  25.955  0.00  0.00    +0.234 C 
ATOM      3  N   ALA A   4       5.856   0.552  25.872  0.00  0.00    -0.303 N 
ATOM      4  H   ALA A   4       6.657   0.963  26.347  0.00  0.00    +0.149 HD
ATOM      5  O   GLN A   3       4.604  -1.315  25.450  0.00  0.00    -0.274 OA
BRANCH   3   6
ATOM      6  CA  ALA A   4       5.021   1.469  25.108  0.00  0.00    +0.156 C 
ATOM      7  CB  ALA A   4       4.260   2.431  26.008  0.00  0.00    +0.038 C 
BRANCH   6   8
ATOM      8  C   ALA A   4       5.952   2.248  24.168  0.00  0.00    +0.234 C 
ATOM      9  O   ALA A   4       5.886   3.471  24.055  0.00  0.00    -0.274 OA
ATOM     10  N   ILE A   5       6.853   1.475  23.479  0.00  0.00    -0.302 N 
ATOM     11  H   ILE A   5       6.827   0.462  23.553  0.00  0.00    +0.150 HD
BRANCH  10  12
ATOM     12  CA  ILE A   5       7.840   2.028  22.547  0.00  0.00    +0.162 C 
BRANCH  12  13
ATOM     13  C   ILE A   5       7.942   0.959  21.434  0.00  0.00    +0.234 C 
ATOM     14  N   ALA A   6       6.749   0.546  20.897  0.00  0.00    -0.305 N 
ATOM     15  H   ALA A   6       5.873   0.968  21.199  0.00  0.00    +0.149 HD
ATOM     16  O   ILE A   5       9.028   0.528  21.043  0.00  0.00    -0.274 OA
BRANCH  14  17
ATOM     17  CA  ALA A   6       6.682  -0.362  19.763  0.00  0.00    +0.133 C 
ATOM     18  CB  ALA A   6       5.888  -1.617  20.090  0.00  0.00    +0.035 C 
BRANCH  17  19
ATOM     19  C   ALA A   6       6.027   0.370  18.600  0.00  0.00    +0.245 C 
ATOM     20  O   ALA A   6       5.850  -0.134  17.491  0.00  0.00    -0.299 OA
ENDBRANCH  17  19
ENDBRANCH  14  17
ENDBRANCH  12  13
BRANCH  12  21
ATOM     21  CB  ILE A   5       9.217   2.279  23.232  0.00  0.00    +0.015 C 
ATOM     22  CG2 ILE A   5       9.383   3.754  23.626  0.00  0.00    +0.010 C 
BRANCH  21  23
ATOM     23  CG1 ILE A   5       9.417   1.359  24.462  0.00  0.00    +0.002 C 
ATOM     24  CD1 ILE A   5      10.797   0.719  24.559  0.00  0.00    +0.004 C 
ENDBRANCH  21  23
ENDBRANCH  12  21
ENDBRANCH  10  12
ENDBRANCH   6   8
ENDBRANCH   3   6
ENDBRANCH   1   2
BRANCH   1  27
ATOM     25  C   LEU A   2       5.417  -3.646  27.371  0.00  0.00    +0.234 C 
ATOM     26  O   LEU A   2       4.877  -3.064  28.313  0.00  0.00    -0.274 OA
ATOM     27  N   GLN A   3       6.289  -3.022  26.516  0.00  0.00    -0.302 N 
ATOM     28  H   GLN A   3       6.755  -3.545  25.778  0.00  0.00    +0.150 HD
BRANCH  25  29
ATOM     29  CA  LEU A   2       5.126  -5.126  27.045  0.00  0.00    +0.159 C 
BRANCH  29  32
ATOM     30  C   THR A   1       4.895  -6.326  24.881  0.00  0.00    +0.233 C 
ATOM     31  O   THR A   1       4.253  -7.254  25.369  0.00  0.00    -0.274 OA
ATOM     32  N   LEU A   2       5.426  -5.303  25.627  0.00  0.00    -0.303 N 
ATOM     33  H   LEU A   2       5.790  -4.480  25.153  0.00  0.00    +0.149 HD
BRANCH  30  34
ATOM     34  CA  THR A   1       5.203  -6.248  23.378  0.00  0.00    +0.166 C 
BRANCH  34  35
ATOM     35  N   THR A   1       3.924  -6.089  22.625  0.00  0.00    -0.318 NA
ATOM     36  H1  THR A   1       3.588  -5.136  22.773  0.00  0.00    +0.119 HD
ATOM     37  H2  THR A   1       4.164  -6.113  21.626  0.00  0.00    +0.119 HD
ENDBRANCH  34  35
BRANCH  34  38
ATOM     38  CB  THR A   1       6.116  -5.043  23.084  0.00  0.00    +0.137 C 
ATOM     39  CG2 THR A   1       7.040  -5.276  21.897  0.00  0.00    +0.040 C 
BRANCH  38  40
ATOM     40  OG1 THR A   1       5.295  -3.903  22.789  0.00  0.00    -0.390 OA
ATOM     41  HG1 THR A   1       5.622  -3.203  23.392  0.00  0.00    +0.210 HD
ENDBRANCH  38  40
ENDBRANCH  34  38
ENDBRANCH  30  34
ENDBRANCH  29  32
BRANCH  29  42
ATOM     42  CB  LEU A   2       6.001  -6.030  27.926  0.00  0.00    +0.034 C 
BRANCH  42  43
ATOM     43  CG  LEU A   2       5.263  -6.699  29.102  0.00  0.00    -0.015 C 
ATOM     44  CD2 LEU A   2       3.756  -6.795  28.859  0.00  0.00    +0.007 C 
ATOM     45  CD1 LEU A   2       5.522  -5.910  30.389  0.00  0.00    +0.007 C 
ENDBRANCH  42  43
ENDBRANCH  29  42
ENDBRANCH  25  29
ENDBRANCH   1  27
BRANCH   1  46
ATOM     46  CB  GLN A   3       8.064  -1.378  26.052  0.00  0.00    +0.041 C 
BRANCH  46  47
ATOM     47  CG  GLN A   3       8.480  -2.441  25.037  0.00  0.00    +0.098 C 
BRANCH  47  48
ATOM     48  CD  GLN A   3       8.273  -2.010  23.601  0.00  0.00    +0.211 C 
ATOM     49  NE2 GLN A   3       9.350  -2.108  22.774  0.00  0.00    -0.329 N 
ATOM     50 HE21 GLN A   3       9.223  -1.813  21.815  0.00  0.00    +0.145 HD
ATOM     51 HE22 GLN A   3      10.279  -2.354  23.081  0.00  0.00    +0.145 HD
ATOM     52  OE1 GLN A   3       7.184  -1.652  23.166  0.00  0.00    -0.276 OA
ENDBRANCH  47  48
ENDBRANCH  46  47
ENDBRANCH   1  46
TORSDOF 21
ENDMDL
MODEL 18
REMARK VINA RESULT:      -6.1      2.446      8.204
REMARK  Name = TLQAIA-mmff94.pdb
REMARK  28 active torsions:
REMARK  status: ('A' for Active; 'I' for Inactive)
REMARK    1  A    between atoms: _1  and  _2
REMARK    2  A    between atoms: _2  and  _3
REMARK    3  A    between atoms: _2  and  _5
REMARK    4  A    between atoms: _5  and  _6
REMARK    5  A    between atoms: _5  and  _7
REMARK    6  A    between atoms: _15  and  _16
REMARK    7  A    between atoms: _16  and  _17
REMARK    8  A    between atoms: _16  and  _19
REMARK    9  A    between atoms: _19  and  _20
REMARK   10  A    between atoms: _20  and  _21
REMARK   11  A    between atoms: _20  and  _22
REMARK   12  A    between atoms: _34  and  _35
REMARK   13  A    between atoms: _35  and  _36
REMARK   14  A    between atoms: _35  and  _38
REMARK   15  A    between atoms: _38  and  _39
REMARK   16  A    between atoms: _39  and  _40
REMARK   17  A    between atoms: _51  and  _52
REMARK   18  A    between atoms: _52  and  _53
REMARK   19  A    between atoms: _52  and  _55
REMARK   20  A    between atoms: _61  and  _62
REMARK   21  A    between atoms: _62  and  _63
REMARK   22  A    between atoms: _62  and  _65
REMARK   23  A    between atoms: _65  and  _66
REMARK   24  A    between atoms: _65  and  _67
REMARK   25  A    between atoms: _66  and  _68
REMARK   26  A    between atoms: _80  and  _81
REMARK   27  A    between atoms: _81  and  _82
REMARK   28  A    between atoms: _81  and  _84
REMARK                            x       y       z     vdW  Elec       q    Type
REMARK                         _______ _______ _______ _____ _____    ______ ____
ROOT
ATOM      1  CA  GLN A   3       7.003   0.253  21.473  0.00  0.00    +0.159 C 
ENDROOT
BRANCH   1   2
ATOM      2  C   GLN A   3       7.706  -0.832  22.311  0.00  0.00    +0.234 C 
ATOM      3  N   ALA A   4       7.849  -0.536  23.641  0.00  0.00    -0.303 N 
ATOM      4  H   ALA A   4       7.599   0.380  24.006  0.00  0.00    +0.149 HD
ATOM      5  O   GLN A   3       8.058  -1.904  21.820  0.00  0.00    -0.274 OA
BRANCH   3   6
ATOM      6  CA  ALA A   4       8.358  -1.497  24.611  0.00  0.00    +0.156 C 
ATOM      7  CB  ALA A   4       8.950  -0.813  25.834  0.00  0.00    +0.038 C 
BRANCH   6   8
ATOM      8  C   ALA A   4       7.177  -2.388  25.022  0.00  0.00    +0.234 C 
ATOM      9  O   ALA A   4       6.313  -1.999  25.807  0.00  0.00    -0.274 OA
ATOM     10  N   ILE A   5       7.165  -3.633  24.445  0.00  0.00    -0.302 N 
ATOM     11  H   ILE A   5       7.936  -3.935  23.855  0.00  0.00    +0.150 HD
BRANCH  10  12
ATOM     12  CA  ILE A   5       6.115  -4.625  24.693  0.00  0.00    +0.162 C 
BRANCH  12  13
ATOM     13  C   ILE A   5       6.446  -5.176  26.098  0.00  0.00    +0.234 C 
ATOM     14  N   ALA A   6       5.504  -4.937  27.067  0.00  0.00    -0.305 N 
ATOM     15  H   ALA A   6       4.633  -4.465  26.834  0.00  0.00    +0.149 HD
ATOM     16  O   ILE A   5       7.480  -5.810  26.323  0.00  0.00    -0.274 OA
BRANCH  14  17
ATOM     17  CA  ALA A   6       5.610  -5.492  28.407  0.00  0.00    +0.133 C 
ATOM     18  CB  ALA A   6       4.918  -4.614  29.439  0.00  0.00    +0.035 C 
BRANCH  17  19
ATOM     19  C   ALA A   6       4.978  -6.876  28.404  0.00  0.00    +0.245 C 
ATOM     20  O   ALA A   6       4.445  -7.383  29.391  0.00  0.00    -0.299 OA
ENDBRANCH  17  19
ENDBRANCH  14  17
ENDBRANCH  12  13
BRANCH  12  21
ATOM     21  CB  ILE A   5       6.111  -5.754  23.618  0.00  0.00    +0.015 C 
ATOM     22  CG2 ILE A   5       4.680  -6.095  23.176  0.00  0.00    +0.010 C 
BRANCH  21  23
ATOM     23  CG1 ILE A   5       6.986  -5.382  22.396  0.00  0.00    +0.002 C 
ATOM     24  CD1 ILE A   5       6.284  -5.510  21.049  0.00  0.00    +0.004 C 
ENDBRANCH  21  23
ENDBRANCH  12  21
ENDBRANCH  10  12
ENDBRANCH   6   8
ENDBRANCH   3   6
ENDBRANCH   1   2
BRANCH   1  27
ATOM     25  C   LEU A   2       6.290   2.569  22.026  0.00  0.00    +0.234 C 
ATOM     26  O   LEU A   2       5.372   2.554  21.205  0.00  0.00    -0.274 OA
ATOM     27  N   GLN A   3       7.118   1.496  22.234  0.00  0.00    -0.302 N 
ATOM     28  H   GLN A   3       7.897   1.560  22.885  0.00  0.00    +0.150 HD
BRANCH  25  29
ATOM     29  CA  LEU A   2       6.565   3.792  22.926  0.00  0.00    +0.159 C 
BRANCH  29  32
ATOM     30  C   THR A   1       5.199   3.168  24.907  0.00  0.00    +0.233 C 
ATOM     31  O   THR A   1       4.142   3.535  24.398  0.00  0.00    -0.274 OA
ATOM     32  N   LEU A   2       6.422   3.330  24.304  0.00  0.00    -0.303 N 
ATOM     33  H   LEU A   2       7.233   2.851  24.690  0.00  0.00    +0.149 HD
BRANCH  30  34
ATOM     34  CA  THR A   1       5.254   2.524  26.301  0.00  0.00    +0.166 C 
BRANCH  34  35
ATOM     35  N   THR A   1       4.099   3.012  27.111  0.00  0.00    -0.318 NA
ATOM     36  H1  THR A   1       4.384   3.019  28.092  0.00  0.00    +0.119 HD
ATOM     37  H2  THR A   1       3.978   4.007  26.883  0.00  0.00    +0.119 HD
ENDBRANCH  34  35
BRANCH  34  38
ATOM     38  CB  THR A   1       5.174   0.990  26.181  0.00  0.00    +0.137 C 
ATOM     39  CG2 THR A   1       3.917   0.411  26.816  0.00  0.00    +0.040 C 
BRANCH  38  40
ATOM     40  OG1 THR A   1       5.173   0.634  24.791  0.00  0.00    -0.390 OA
ATOM     41  HG1 THR A   1       4.254   0.802  24.496  0.00  0.00    +0.210 HD
ENDBRANCH  38  40
ENDBRANCH  34  38
ENDBRANCH  30  34
ENDBRANCH  29  32
BRANCH  29  42
ATOM     42  CB  LEU A   2       7.978   4.328  22.653  0.00  0.00    +0.034 C 
BRANCH  42  43
ATOM     43  CG  LEU A   2       8.951   4.226  23.844  0.00  0.00    -0.015 C 
ATOM     44  CD2 LEU A   2       9.622   5.565  24.157  0.00  0.00    +0.007 C 
ATOM     45  CD1 LEU A   2      10.024   3.175  23.547  0.00  0.00    +0.007 C 
ENDBRANCH  42  43
ENDBRANCH  29  42
ENDBRANCH  25  29
ENDBRANCH   1  27
BRANCH   1  46
ATOM     46  CB  GLN A   3       7.664   0.404  20.094  0.00  0.00    +0.041 C 
BRANCH  46  47
ATOM     47  CG  GLN A   3       6.847  -0.197  18.951  0.00  0.00    +0.098 C 
BRANCH  47  48
ATOM     48  CD  GLN A   3       6.040   0.831  18.188  0.00  0.00    +0.211 C 
ATOM     49  NE2 GLN A   3       4.844   1.189  18.727  0.00  0.00    -0.329 N 
ATOM     50 HE21 GLN A   3       4.294   1.870  18.218  0.00  0.00    +0.145 HD
ATOM     51 HE22 GLN A   3       4.431   0.748  19.535  0.00  0.00    +0.145 HD
ATOM     52  OE1 GLN A   3       6.455   1.376  17.171  0.00  0.00    -0.276 OA
ENDBRANCH  47  48
ENDBRANCH  46  47
ENDBRANCH   1  46
TORSDOF 21
ENDMDL
MODEL 19
REMARK VINA RESULT:      -6.1      1.940      4.212
REMARK  Name = TLQAIA-mmff94.pdb
REMARK  28 active torsions:
REMARK  status: ('A' for Active; 'I' for Inactive)
REMARK    1  A    between atoms: _1  and  _2
REMARK    2  A    between atoms: _2  and  _3
REMARK    3  A    between atoms: _2  and  _5
REMARK    4  A    between atoms: _5  and  _6
REMARK    5  A    between atoms: _5  and  _7
REMARK    6  A    between atoms: _15  and  _16
REMARK    7  A    between atoms: _16  and  _17
REMARK    8  A    between atoms: _16  and  _19
REMARK    9  A    between atoms: _19  and  _20
REMARK   10  A    between atoms: _20  and  _21
REMARK   11  A    between atoms: _20  and  _22
REMARK   12  A    between atoms: _34  and  _35
REMARK   13  A    between atoms: _35  and  _36
REMARK   14  A    between atoms: _35  and  _38
REMARK   15  A    between atoms: _38  and  _39
REMARK   16  A    between atoms: _39  and  _40
REMARK   17  A    between atoms: _51  and  _52
REMARK   18  A    between atoms: _52  and  _53
REMARK   19  A    between atoms: _52  and  _55
REMARK   20  A    between atoms: _61  and  _62
REMARK   21  A    between atoms: _62  and  _63
REMARK   22  A    between atoms: _62  and  _65
REMARK   23  A    between atoms: _65  and  _66
REMARK   24  A    between atoms: _65  and  _67
REMARK   25  A    between atoms: _66  and  _68
REMARK   26  A    between atoms: _80  and  _81
REMARK   27  A    between atoms: _81  and  _82
REMARK   28  A    between atoms: _81  and  _84
REMARK                            x       y       z     vdW  Elec       q    Type
REMARK                         _______ _______ _______ _____ _____    ______ ____
ROOT
ATOM      1  CA  GLN A   3       6.598  -0.306  26.243  0.00  0.00    +0.159 C 
ENDROOT
BRANCH   1   2
ATOM      2  C   GLN A   3       6.149   1.065  25.706  0.00  0.00    +0.234 C 
ATOM      3  N   ALA A   4       7.014   2.099  25.959  0.00  0.00    -0.303 N 
ATOM      4  H   ALA A   4       7.831   1.968  26.550  0.00  0.00    +0.149 HD
ATOM      5  O   GLN A   3       5.116   1.200  25.051  0.00  0.00    -0.274 OA
BRANCH   3   6
ATOM      6  CA  ALA A   4       6.827   3.434  25.406  0.00  0.00    +0.156 C 
ATOM      7  CB  ALA A   4       7.712   4.463  26.092  0.00  0.00    +0.038 C 
BRANCH   6   8
ATOM      8  C   ALA A   4       7.171   3.352  23.911  0.00  0.00    +0.234 C 
ATOM      9  O   ALA A   4       6.813   4.219  23.115  0.00  0.00    -0.274 OA
ATOM     10  N   ILE A   5       7.903   2.251  23.547  0.00  0.00    -0.302 N 
ATOM     11  H   ILE A   5       8.118   1.527  24.227  0.00  0.00    +0.150 HD
BRANCH  10  12
ATOM     12  CA  ILE A   5       8.347   1.998  22.174  0.00  0.00    +0.162 C 
BRANCH  12  13
ATOM     13  C   ILE A   5       7.260   1.063  21.595  0.00  0.00    +0.234 C 
ATOM     14  N   ALA A   6       6.779   1.407  20.357  0.00  0.00    -0.305 N 
ATOM     15  H   ALA A   6       7.166   2.204  19.857  0.00  0.00    +0.149 HD
ATOM     16  O   ILE A   5       6.872   0.063  22.202  0.00  0.00    -0.274 OA
BRANCH  14  17
ATOM     17  CA  ALA A   6       5.843   0.566  19.627  0.00  0.00    +0.133 C 
ATOM     18  CB  ALA A   6       4.742   1.383  18.971  0.00  0.00    +0.035 C 
BRANCH  17  19
ATOM     19  C   ALA A   6       6.617  -0.200  18.563  0.00  0.00    +0.245 C 
ATOM     20  O   ALA A   6       7.826  -0.067  18.373  0.00  0.00    -0.299 OA
ENDBRANCH  17  19
ENDBRANCH  14  17
ENDBRANCH  12  13
BRANCH  12  21
ATOM     21  CB  ILE A   5       9.758   1.337  22.126  0.00  0.00    +0.015 C 
ATOM     22  CG2 ILE A   5      10.425   1.347  23.509  0.00  0.00    +0.010 C 
BRANCH  21  23
ATOM     23  CG1 ILE A   5       9.693  -0.104  21.561  0.00  0.00    +0.002 C 
ATOM     24  CD1 ILE A   5      10.157  -1.187  22.528  0.00  0.00    +0.004 C 
ENDBRANCH  21  23
ENDBRANCH  12  21
ENDBRANCH  10  12
ENDBRANCH   6   8
ENDBRANCH   3   6
ENDBRANCH   1   2
BRANCH   1  27
ATOM     25  C   LEU A   2       5.014  -2.216  26.081  0.00  0.00    +0.234 C 
ATOM     26  O   LEU A   2       4.810  -2.235  27.295  0.00  0.00    -0.274 OA
ATOM     27  N   GLN A   3       5.850  -1.308  25.484  0.00  0.00    -0.302 N 
ATOM     28  H   GLN A   3       6.034  -1.351  24.484  0.00  0.00    +0.150 HD
BRANCH  25  29
ATOM     29  CA  LEU A   2       4.311  -3.192  25.115  0.00  0.00    +0.159 C 
BRANCH  29  32
ATOM     30  C   THR A   1       4.848  -4.038  22.840  0.00  0.00    +0.233 C 
ATOM     31  O   THR A   1       3.781  -4.637  22.720  0.00  0.00    -0.274 OA
ATOM     32  N   LEU A   2       5.221  -3.386  23.989  0.00  0.00    -0.303 N 
ATOM     33  H   LEU A   2       6.027  -2.766  23.969  0.00  0.00    +0.149 HD
BRANCH  30  34
ATOM     34  CA  THR A   1       5.893  -3.999  21.715  0.00  0.00    +0.166 C 
BRANCH  34  35
ATOM     35  N   THR A   1       6.937  -2.987  22.051  0.00  0.00    -0.318 NA
ATOM     36  H1  THR A   1       7.718  -3.114  21.405  0.00  0.00    +0.119 HD
ATOM     37  H2  THR A   1       6.553  -2.069  21.795  0.00  0.00    +0.119 HD
ENDBRANCH  34  35
BRANCH  34  38
ATOM     38  CB  THR A   1       6.558  -5.379  21.559  0.00  0.00    +0.137 C 
ATOM     39  CG2 THR A   1       7.463  -5.736  22.730  0.00  0.00    +0.040 C 
BRANCH  38  40
ATOM     40  OG1 THR A   1       5.533  -6.379  21.469  0.00  0.00    -0.390 OA
ATOM     41  HG1 THR A   1       5.966  -7.203  21.774  0.00  0.00    +0.210 HD
ENDBRANCH  38  40
ENDBRANCH  34  38
ENDBRANCH  30  34
ENDBRANCH  29  32
BRANCH  29  42
ATOM     42  CB  LEU A   2       4.018  -4.514  25.840  0.00  0.00    +0.034 C 
BRANCH  42  43
ATOM     43  CG  LEU A   2       5.191  -5.514  25.863  0.00  0.00    -0.015 C 
ATOM     44  CD2 LEU A   2       4.802  -6.875  25.283  0.00  0.00    +0.007 C 
ATOM     45  CD1 LEU A   2       5.686  -5.695  27.301  0.00  0.00    +0.007 C 
ENDBRANCH  42  43
ENDBRANCH  29  42
ENDBRANCH  25  29
ENDBRANCH   1  27
BRANCH   1  46
ATOM     46  CB  GLN A   3       8.110  -0.508  26.055  0.00  0.00    +0.041 C 
BRANCH  46  47
ATOM     47  CG  GLN A   3       8.658  -1.745  26.763  0.00  0.00    +0.098 C 
BRANCH  47  48
ATOM     48  CD  GLN A   3       8.592  -2.998  25.916  0.00  0.00    +0.211 C 
ATOM     49  NE2 GLN A   3       8.946  -4.163  26.523  0.00  0.00    -0.329 N 
ATOM     50 HE21 GLN A   3       8.913  -5.004  25.962  0.00  0.00    +0.145 HD
ATOM     51 HE22 GLN A   3       9.333  -4.223  27.453  0.00  0.00    +0.145 HD
ATOM     52  OE1 GLN A   3       8.178  -2.997  24.762  0.00  0.00    -0.276 OA
ENDBRANCH  47  48
ENDBRANCH  46  47
ENDBRANCH   1  46
TORSDOF 21
ENDMDL
MODEL 20
REMARK VINA RESULT:      -6.1      2.088      7.301
REMARK  Name = TLQAIA-mmff94.pdb
REMARK  28 active torsions:
REMARK  status: ('A' for Active; 'I' for Inactive)
REMARK    1  A    between atoms: _1  and  _2
REMARK    2  A    between atoms: _2  and  _3
REMARK    3  A    between atoms: _2  and  _5
REMARK    4  A    between atoms: _5  and  _6
REMARK    5  A    between atoms: _5  and  _7
REMARK    6  A    between atoms: _15  and  _16
REMARK    7  A    between atoms: _16  and  _17
REMARK    8  A    between atoms: _16  and  _19
REMARK    9  A    between atoms: _19  and  _20
REMARK   10  A    between atoms: _20  and  _21
REMARK   11  A    between atoms: _20  and  _22
REMARK   12  A    between atoms: _34  and  _35
REMARK   13  A    between atoms: _35  and  _36
REMARK   14  A    between atoms: _35  and  _38
REMARK   15  A    between atoms: _38  and  _39
REMARK   16  A    between atoms: _39  and  _40
REMARK   17  A    between atoms: _51  and  _52
REMARK   18  A    between atoms: _52  and  _53
REMARK   19  A    between atoms: _52  and  _55
REMARK   20  A    between atoms: _61  and  _62
REMARK   21  A    between atoms: _62  and  _63
REMARK   22  A    between atoms: _62  and  _65
REMARK   23  A    between atoms: _65  and  _66
REMARK   24  A    between atoms: _65  and  _67
REMARK   25  A    between atoms: _66  and  _68
REMARK   26  A    between atoms: _80  and  _81
REMARK   27  A    between atoms: _81  and  _82
REMARK   28  A    between atoms: _81  and  _84
REMARK                            x       y       z     vdW  Elec       q    Type
REMARK                         _______ _______ _______ _____ _____    ______ ____
ROOT
ATOM      1  CA  GLN A   3       6.589  -0.547  20.913  0.00  0.00    +0.159 C 
ENDROOT
BRANCH   1   2
ATOM      2  C   GLN A   3       6.101  -2.008  20.906  0.00  0.00    +0.234 C 
ATOM      3  N   ALA A   4       6.342  -2.705  22.061  0.00  0.00    -0.303 N 
ATOM      4  H   ALA A   4       6.895  -2.302  22.813  0.00  0.00    +0.149 HD
ATOM      5  O   GLN A   3       5.493  -2.485  19.948  0.00  0.00    -0.274 OA
BRANCH   3   6
ATOM      6  CA  ALA A   4       5.827  -4.048  22.291  0.00  0.00    +0.156 C 
ATOM      7  CB  ALA A   4       6.910  -5.106  22.144  0.00  0.00    +0.038 C 
BRANCH   6   8
ATOM      8  C   ALA A   4       5.253  -4.072  23.715  0.00  0.00    +0.234 C 
ATOM      9  O   ALA A   4       4.306  -4.795  24.021  0.00  0.00    -0.274 OA
ATOM     10  N   ILE A   5       5.880  -3.236  24.603  0.00  0.00    -0.302 N 
ATOM     11  H   ILE A   5       6.615  -2.608  24.290  0.00  0.00    +0.150 HD
BRANCH  10  12
ATOM     12  CA  ILE A   5       5.497  -3.126  26.013  0.00  0.00    +0.162 C 
BRANCH  12  13
ATOM     13  C   ILE A   5       5.186  -1.623  26.199  0.00  0.00    +0.234 C 
ATOM     14  N   ALA A   6       5.144  -1.181  27.498  0.00  0.00    -0.305 N 
ATOM     15  H   ALA A   6       5.355  -1.816  28.265  0.00  0.00    +0.149 HD
ATOM     16  O   ILE A   5       5.011  -0.870  25.239  0.00  0.00    -0.274 OA
BRANCH  14  17
ATOM     17  CA  ALA A   6       4.983   0.224  27.835  0.00  0.00    +0.133 C 
ATOM     18  CB  ALA A   6       3.841   0.443  28.816  0.00  0.00    +0.035 C 
BRANCH  17  19
ATOM     19  C   ALA A   6       6.285   0.724  28.445  0.00  0.00    +0.245 C 
ATOM     20  O   ALA A   6       7.387   0.559  27.922  0.00  0.00    -0.299 OA
ENDBRANCH  17  19
ENDBRANCH  14  17
ENDBRANCH  12  13
BRANCH  12  21
ATOM     21  CB  ILE A   5       6.633  -3.600  26.969  0.00  0.00    +0.015 C 
ATOM     22  CG2 ILE A   5       6.310  -4.972  27.580  0.00  0.00    +0.010 C 
BRANCH  21  23
ATOM     23  CG1 ILE A   5       8.005  -3.632  26.252  0.00  0.00    +0.002 C 
ATOM     24  CD1 ILE A   5       8.628  -5.018  26.132  0.00  0.00    +0.004 C 
ENDBRANCH  21  23
ENDBRANCH  12  21
ENDBRANCH  10  12
ENDBRANCH   6   8
ENDBRANCH   3   6
ENDBRANCH   1   2
BRANCH   1  27
ATOM     25  C   LEU A   2       7.364   0.957  22.734  0.00  0.00    +0.234 C 
ATOM     26  O   LEU A   2       7.097   1.977  22.096  0.00  0.00    -0.274 OA
ATOM     27  N   GLN A   3       7.137  -0.304  22.246  0.00  0.00    -0.302 N 
ATOM     28  H   GLN A   3       7.415  -1.125  22.779  0.00  0.00    +0.150 HD
BRANCH  25  29
ATOM     29  CA  LEU A   2       7.946   1.012  24.162  0.00  0.00    +0.159 C 
BRANCH  29  32
ATOM     30  C   THR A   1       6.886   2.943  25.315  0.00  0.00    +0.233 C 
ATOM     31  O   THR A   1       7.801   3.716  25.038  0.00  0.00    -0.274 OA
ATOM     32  N   LEU A   2       6.911   1.605  25.006  0.00  0.00    -0.303 N 
ATOM     33  H   LEU A   2       6.059   1.058  25.100  0.00  0.00    +0.149 HD
BRANCH  30  34
ATOM     34  CA  THR A   1       5.635   3.399  26.080  0.00  0.00    +0.166 C 
BRANCH  34  35
ATOM     35  N   THR A   1       5.827   4.807  26.536  0.00  0.00    -0.318 NA
ATOM     36  H1  THR A   1       5.755   5.415  25.718  0.00  0.00    +0.119 HD
ATOM     37  H2  THR A   1       5.001   5.051  27.097  0.00  0.00    +0.119 HD
ENDBRANCH  34  35
BRANCH  34  38
ATOM     38  CB  THR A   1       4.397   3.328  25.166  0.00  0.00    +0.137 C 
ATOM     39  CG2 THR A   1       4.583   4.084  23.858  0.00  0.00    +0.040 C 
BRANCH  38  40
ATOM     40  OG1 THR A   1       4.135   1.953  24.849  0.00  0.00    -0.390 OA
ATOM     41  HG1 THR A   1       3.219   1.951  24.504  0.00  0.00    +0.210 HD
ENDBRANCH  38  40
ENDBRANCH  34  38
ENDBRANCH  30  34
ENDBRANCH  29  32
BRANCH  29  42
ATOM     42  CB  LEU A   2       8.310  -0.406  24.626  0.00  0.00    +0.034 C 
BRANCH  42  43
ATOM     43  CG  LEU A   2       9.816  -0.730  24.596  0.00  0.00    -0.015 C 
ATOM     44  CD2 LEU A   2      10.678   0.533  24.547  0.00  0.00    +0.007 C 
ATOM     45  CD1 LEU A   2      10.131  -1.609  23.383  0.00  0.00    +0.007 C 
ENDBRANCH  42  43
ENDBRANCH  29  42
ENDBRANCH  25  29
ENDBRANCH   1  27
BRANCH   1  46
ATOM     46  CB  GLN A   3       7.664  -0.316  19.840  0.00  0.00    +0.041 C 
BRANCH  46  47
ATOM     47  CG  GLN A   3       7.272   0.719  18.787  0.00  0.00    +0.098 C 
BRANCH  47  48
ATOM     48  CD  GLN A   3       5.795   0.703  18.454  0.00  0.00    +0.211 C 
ATOM     49  NE2 GLN A   3       5.365  -0.303  17.645  0.00  0.00    -0.329 N 
ATOM     50 HE21 GLN A   3       4.381  -0.317  17.410  0.00  0.00    +0.145 HD
ATOM     51 HE22 GLN A   3       5.975  -0.964  17.189  0.00  0.00    +0.145 HD
ATOM     52  OE1 GLN A   3       4.999   1.504  18.931  0.00  0.00    -0.276 OA
ENDBRANCH  47  48
ENDBRANCH  46  47
ENDBRANCH   1  46
TORSDOF 21
ENDMDL
