REMARK  Name = TVQSKM-mmff94.pdb
REMARK  32 active torsions:
REMARK  status: ('A' for Active; 'I' for Inactive)
REMARK    1  A    between atoms: _1  and  _2
REMARK    2  A    between atoms: _2  and  _3
REMARK    3  A    between atoms: _2  and  _5
REMARK    4  A    between atoms: _5  and  _6
REMARK    5  A    between atoms: _5  and  _7
REMARK    6  A    between atoms: _15  and  _16
REMARK    7  A    between atoms: _16  and  _17
REMARK    8  A    between atoms: _16  and  _19
REMARK    9  A    between atoms: _19  and  _20
REMARK   10  A    between atoms: _19  and  _21
REMARK   11  A    between atoms: _31  and  _32
REMARK   12  A    between atoms: _32  and  _33
REMARK   13  A    between atoms: _32  and  _35
REMARK   14  A    between atoms: _35  and  _36
REMARK   15  A    between atoms: _36  and  _37
REMARK   16  A    between atoms: _48  and  _49
REMARK   17  A    between atoms: _49  and  _50
REMARK   18  A    between atoms: _49  and  _52
REMARK   19  A    between atoms: _52  and  _53
REMARK   20  A    between atoms: _59  and  _60
REMARK   21  A    between atoms: _60  and  _61
REMARK   22  A    between atoms: _60  and  _63
REMARK   23  A    between atoms: _63  and  _64
REMARK   24  A    between atoms: _64  and  _65
REMARK   25  A    between atoms: _65  and  _66
REMARK   26  A    between atoms: _66  and  _67
REMARK   27  A    between atoms: _81  and  _82
REMARK   28  A    between atoms: _82  and  _83
REMARK   29  A    between atoms: _82  and  _85
REMARK   30  A    between atoms: _85  and  _86
REMARK   31  A    between atoms: _86  and  _87
REMARK   32  A    between atoms: _87  and  _88
REMARK                            x       y       z     vdW  Elec       q    Type
REMARK                         _______ _______ _______ _____ _____    ______ ____
ROOT
ATOM      1  C   GLN A   3       7.718   2.737  -0.510  0.00  0.00    +0.234 C 
ATOM      2  O   GLN A   3       8.197   1.688  -0.080  0.00  0.00    -0.274 OA
ATOM      3  N   SER A   4       8.501   3.751  -0.994  0.00  0.00    -0.301 N 
ATOM      4  H   SER A   4       8.100   4.614  -1.352  0.00  0.00    +0.150 HD
ENDROOT
BRANCH   3   5
ATOM      5  CA  SER A   4       9.957   3.719  -0.871  0.00  0.00    +0.184 C 
BRANCH   5   6
ATOM      6  C   SER A   4      10.464   5.170  -0.912  0.00  0.00    +0.236 C 
ATOM      7  N   LYS A   5      11.762   5.344  -0.502  0.00  0.00    -0.302 N 
ATOM      8  H   LYS A   5      12.307   4.559  -0.154  0.00  0.00    +0.150 HD
ATOM      9  O   SER A   4       9.749   6.109  -1.266  0.00  0.00    -0.274 OA
BRANCH   7  10
ATOM     10  CA  LYS A   5      12.423   6.642  -0.522  0.00  0.00    +0.159 C 
BRANCH  10  11
ATOM     11  C   LYS A   5      13.931   6.346  -0.469  0.00  0.00    +0.234 C 
ATOM     12  N   MET A   6      14.730   7.283  -1.075  0.00  0.00    -0.304 N 
ATOM     13  H   MET A   6      14.316   8.101  -1.511  0.00  0.00    +0.149 HD
ATOM     14  O   LYS A   5      14.384   5.355   0.102  0.00  0.00    -0.274 OA
BRANCH  12  15
ATOM     15  CA  MET A   6      16.185   7.234  -1.006  0.00  0.00    +0.137 C 
BRANCH  15  16
ATOM     16  C   MET A   6      16.676   8.668  -0.812  0.00  0.00    +0.245 C 
ATOM     17  O   MET A   6      15.931   9.615  -0.553  0.00  0.00    -0.299 OA
ENDBRANCH  15  16
BRANCH  15  18
ATOM     18  CB  MET A   6      16.803   6.626  -2.267  0.00  0.00    +0.040 C 
BRANCH  18  19
ATOM     19  CG  MET A   6      16.453   5.145  -2.419  0.00  0.00    +0.071 C 
BRANCH  19  20
ATOM     20  SD  MET A   6      17.310   4.453  -3.866  0.00  0.00    -0.164 S 
ATOM     21  CE  MET A   6      16.602   2.787  -3.824  0.00  0.00    +0.084 C 
ENDBRANCH  19  20
ENDBRANCH  18  19
ENDBRANCH  15  18
ENDBRANCH  12  15
ENDBRANCH  10  11
BRANCH  10  22
ATOM     22  CB  LYS A   5      11.980   7.507   0.671  0.00  0.00    +0.032 C 
BRANCH  22  23
ATOM     23  CG  LYS A   5      12.560   8.924   0.647  0.00  0.00    +0.007 C 
BRANCH  23  24
ATOM     24  CD  LYS A   5      11.970   9.796   1.757  0.00  0.00    +0.051 C 
BRANCH  24  25
ATOM     25  CE  LYS A   5      12.609  11.178   1.756  0.00  0.00    +0.127 C 
BRANCH  25  26
ATOM     26  NZ  LYS A   5      12.006  11.990   2.841  0.00  0.00    +0.219 N 
ATOM     27  HZ1 LYS A   5      12.158  11.562   3.763  0.00  0.00    +0.199 HD
ATOM     28  HZ2 LYS A   5      12.418  12.932   2.868  0.00  0.00    +0.199 HD
ATOM     29  HZ3 LYS A   5      10.992  12.100   2.712  0.00  0.00    +0.199 HD
ENDBRANCH  25  26
ENDBRANCH  24  25
ENDBRANCH  23  24
ENDBRANCH  22  23
ENDBRANCH  10  22
ENDBRANCH   7  10
ENDBRANCH   5   6
BRANCH   5  30
ATOM     30  CB  SER A   4      10.618   2.866  -1.959  0.00  0.00    +0.187 C 
BRANCH  30  31
ATOM     31  OG  SER A   4      10.236   3.294  -3.265  0.00  0.00    -0.393 OA
ATOM     32  H   SER A   4       9.276   3.150  -3.338  0.00  0.00    +0.209 HD
ENDBRANCH  30  31
ENDBRANCH   5  30
ENDBRANCH   3   5
BRANCH   1  33
ATOM     33  CA  GLN A   3       6.204   3.016  -0.487  0.00  0.00    +0.159 C 
BRANCH  33  36
ATOM     34  C   VAL A   2       4.330   1.507  -1.108  0.00  0.00    +0.234 C 
ATOM     35  O   VAL A   2       3.660   2.436  -1.560  0.00  0.00    -0.274 OA
ATOM     36  N   GLN A   3       5.562   1.706  -0.538  0.00  0.00    -0.302 N 
ATOM     37  H   GLN A   3       6.089   0.921  -0.160  0.00  0.00    +0.150 HD
BRANCH  34  38
ATOM     38  CA  VAL A   2       3.852   0.038  -1.168  0.00  0.00    +0.161 C 
BRANCH  38  40
ATOM     39  C   THR A   1       1.580  -0.687  -0.443  0.00  0.00    +0.233 C 
ATOM     40  N   VAL A   2       2.390   0.125  -1.195  0.00  0.00    -0.302 N 
ATOM     41  H   VAL A   2       2.000   0.935  -1.672  0.00  0.00    +0.150 HD
ATOM     42  O   THR A   1       2.010  -1.615   0.240  0.00  0.00    -0.274 OA
BRANCH  39  43
ATOM     43  CA  THR A   1       0.082  -0.353  -0.520  0.00  0.00    +0.166 C 
BRANCH  43  44
ATOM     44  N   THR A   1      -0.707  -1.617  -0.570  0.00  0.00    -0.318 NA
ATOM     45  H1  THR A   1      -0.540  -2.060  -1.475  0.00  0.00    +0.119 HD
ATOM     46  H2  THR A   1      -0.276  -2.263   0.103  0.00  0.00    +0.119 HD
ENDBRANCH  43  44
BRANCH  43  47
ATOM     47  CB  THR A   1      -0.338   0.464   0.719  0.00  0.00    +0.137 C 
ATOM     48  CG2 THR A   1       0.182   1.894   0.689  0.00  0.00    +0.040 C 
BRANCH  47  49
ATOM     49  OG1 THR A   1      -1.770   0.521   0.773  0.00  0.00    -0.390 OA
ATOM     50  HG1 THR A   1      -2.060  -0.365   0.466  0.00  0.00    +0.210 HD
ENDBRANCH  47  49
ENDBRANCH  43  47
ENDBRANCH  39  43
ENDBRANCH  38  40
BRANCH  38  51
ATOM     51  CB  VAL A   2       4.396  -0.709  -2.409  0.00  0.00    +0.012 C 
ATOM     52  CG2 VAL A   2       3.868  -2.149  -2.474  0.00  0.00    +0.009 C 
ATOM     53  CG1 VAL A   2       5.927  -0.754  -2.451  0.00  0.00    +0.009 C 
ENDBRANCH  38  51
ENDBRANCH  34  38
ENDBRANCH  33  36
BRANCH  33  54
ATOM     54  CB  GLN A   3       5.802   3.764   0.792  0.00  0.00    +0.041 C 
BRANCH  54  55
ATOM     55  CG  GLN A   3       6.042   5.272   0.711  0.00  0.00    +0.098 C 
BRANCH  55  56
ATOM     56  CD  GLN A   3       5.908   5.953   2.055  0.00  0.00    +0.211 C 
ATOM     57  NE2 GLN A   3       4.708   5.807   2.678  0.00  0.00    -0.329 N 
ATOM     58 HE21 GLN A   3       4.573   6.270   3.568  0.00  0.00    +0.145 HD
ATOM     59 HE22 GLN A   3       3.917   5.331   2.265  0.00  0.00    +0.145 HD
ATOM     60  OE1 GLN A   3       6.807   6.624   2.553  0.00  0.00    -0.276 OA
ENDBRANCH  55  56
ENDBRANCH  54  55
ENDBRANCH  33  54
ENDBRANCH   1  33
TORSDOF 28
