MODEL 1
REMARK VINA RESULT:      -6.3      0.000      0.000
REMARK  Name = VLQAVG-mmff94.pdb
REMARK  26 active torsions:
REMARK  status: ('A' for Active; 'I' for Inactive)
REMARK    1  A    between atoms: _1  and  _2
REMARK    2  A    between atoms: _2  and  _3
REMARK    3  A    between atoms: _2  and  _5
REMARK    4  A    between atoms: _5  and  _6
REMARK    5  A    between atoms: _5  and  _7
REMARK    6  A    between atoms: _17  and  _18
REMARK    7  A    between atoms: _18  and  _19
REMARK    8  A    between atoms: _18  and  _21
REMARK    9  A    between atoms: _21  and  _22
REMARK   10  A    between atoms: _22  and  _23
REMARK   11  A    between atoms: _22  and  _24
REMARK   12  A    between atoms: _36  and  _37
REMARK   13  A    between atoms: _37  and  _38
REMARK   14  A    between atoms: _37  and  _40
REMARK   15  A    between atoms: _40  and  _41
REMARK   16  A    between atoms: _41  and  _42
REMARK   17  A    between atoms: _53  and  _54
REMARK   18  A    between atoms: _54  and  _55
REMARK   19  A    between atoms: _54  and  _57
REMARK   20  A    between atoms: _63  and  _64
REMARK   21  A    between atoms: _64  and  _65
REMARK   22  A    between atoms: _64  and  _67
REMARK   23  A    between atoms: _67  and  _68
REMARK   24  A    between atoms: _67  and  _69
REMARK   25  A    between atoms: _79  and  _80
REMARK   26  A    between atoms: _80  and  _81
REMARK                            x       y       z     vdW  Elec       q    Type
REMARK                         _______ _______ _______ _____ _____    ______ ____
ROOT
ATOM      1  CA  GLN A   3       9.131  -1.940  25.147  0.00  0.00    +0.159 C 
ENDROOT
BRANCH   1   4
ATOM      2  C   LEU A   2       9.265   0.519  24.803  0.00  0.00    +0.234 C 
ATOM      3  O   LEU A   2      10.465   0.559  25.075  0.00  0.00    -0.274 OA
ATOM      4  N   GLN A   3       8.544  -0.648  24.796  0.00  0.00    -0.302 N 
ATOM      5  H   GLN A   3       7.543  -0.637  24.614  0.00  0.00    +0.150 HD
BRANCH   2   6
ATOM      6  CA  LEU A   2       8.468   1.780  24.406  0.00  0.00    +0.159 C 
BRANCH   6   8
ATOM      7  C   VAL A   1       7.419   1.981  22.163  0.00  0.00    +0.231 C 
ATOM      8  N   LEU A   2       7.507   1.367  23.389  0.00  0.00    -0.303 N 
ATOM      9  H   LEU A   2       7.123   0.432  23.500  0.00  0.00    +0.149 HD
ATOM     10  O   VAL A   1       8.041   3.002  21.875  0.00  0.00    -0.274 OA
BRANCH   7  11
ATOM     11  CA  VAL A   1       6.422   1.316  21.185  0.00  0.00    +0.140 C 
BRANCH  11  12
ATOM     12  N   VAL A   1       5.395   2.323  20.838  0.00  0.00    -0.320 NA
ATOM     13  H1  VAL A   1       5.858   3.219  20.681  0.00  0.00    +0.119 HD
ATOM     14  H2  VAL A   1       5.016   2.067  19.921  0.00  0.00    +0.119 HD
ENDBRANCH  11  12
BRANCH  11  15
ATOM     15  CB  VAL A   1       7.158   0.802  19.926  0.00  0.00    +0.009 C 
ATOM     16  CG2 VAL A   1       8.312  -0.136  20.301  0.00  0.00    +0.009 C 
ATOM     17  CG1 VAL A   1       6.208   0.066  18.972  0.00  0.00    +0.009 C 
ENDBRANCH  11  15
ENDBRANCH   7  11
ENDBRANCH   6   8
BRANCH   6  18
ATOM     18  CB  LEU A   2       7.764   2.357  25.644  0.00  0.00    +0.034 C 
BRANCH  18  19
ATOM     19  CG  LEU A   2       7.667   3.896  25.674  0.00  0.00    -0.015 C 
ATOM     20  CD2 LEU A   2       6.360   4.404  25.065  0.00  0.00    +0.007 C 
ATOM     21  CD1 LEU A   2       8.853   4.503  24.918  0.00  0.00    +0.007 C 
ENDBRANCH  18  19
ENDBRANCH   6  18
ENDBRANCH   2   6
ENDBRANCH   1   4
BRANCH   1  22
ATOM     22  C   GLN A   3       8.963  -2.841  23.909  0.00  0.00    +0.234 C 
ATOM     23  N   ALA A   4       7.738  -3.446  23.791  0.00  0.00    -0.303 N 
ATOM     24  H   ALA A   4       7.040  -3.369  24.528  0.00  0.00    +0.149 HD
ATOM     25  O   GLN A   3       9.851  -2.957  23.065  0.00  0.00    -0.274 OA
BRANCH  23  26
ATOM     26  CA  ALA A   4       7.353  -4.217  22.617  0.00  0.00    +0.156 C 
ATOM     27  CB  ALA A   4       7.785  -5.671  22.726  0.00  0.00    +0.038 C 
BRANCH  26  28
ATOM     28  C   ALA A   4       5.823  -4.125  22.495  0.00  0.00    +0.234 C 
ATOM     29  O   ALA A   4       5.276  -3.731  21.466  0.00  0.00    -0.274 OA
ATOM     30  N   VAL A   5       5.134  -4.509  23.617  0.00  0.00    -0.302 N 
ATOM     31  H   VAL A   5       5.632  -4.755  24.468  0.00  0.00    +0.150 HD
BRANCH  30  32
ATOM     32  CA  VAL A   5       3.671  -4.497  23.710  0.00  0.00    +0.161 C 
BRANCH  32  33
ATOM     33  C   VAL A   5       3.368  -3.464  24.820  0.00  0.00    +0.234 C 
ATOM     34  N   GLY A   6       4.460  -2.827  25.351  0.00  0.00    -0.307 N 
ATOM     35  H   GLY A   6       5.403  -3.064  25.052  0.00  0.00    +0.149 HD
ATOM     36  O   VAL A   5       2.217  -3.211  25.180  0.00  0.00    -0.274 OA
BRANCH  34  37
ATOM     37  CA  GLY A   6       4.324  -1.786  26.349  0.00  0.00    +0.175 C 
BRANCH  37  38
ATOM     38  C   GLY A   6       5.257  -0.640  26.020  0.00  0.00    +0.242 C 
ATOM     39  O   GLY A   6       5.371  -0.157  24.895  0.00  0.00    -0.299 OA
ENDBRANCH  37  38
ENDBRANCH  34  37
ENDBRANCH  32  33
BRANCH  32  40
ATOM     40  CB  VAL A   5       3.107  -5.899  24.061  0.00  0.00    +0.012 C 
ATOM     41  CG2 VAL A   5       2.246  -6.485  22.936  0.00  0.00    +0.009 C 
ATOM     42  CG1 VAL A   5       4.220  -6.904  24.387  0.00  0.00    +0.009 C 
ENDBRANCH  32  40
ENDBRANCH  30  32
ENDBRANCH  26  28
ENDBRANCH  23  26
ENDBRANCH   1  22
BRANCH   1  43
ATOM     43  CB  GLN A   3       8.416  -2.537  26.370  0.00  0.00    +0.041 C 
BRANCH  43  44
ATOM     44  CG  GLN A   3       8.785  -3.993  26.648  0.00  0.00    +0.098 C 
BRANCH  44  45
ATOM     45  CD  GLN A   3       7.585  -4.910  26.752  0.00  0.00    +0.211 C 
ATOM     46  NE2 GLN A   3       7.747  -6.049  27.479  0.00  0.00    -0.329 N 
ATOM     47 HE21 GLN A   3       6.951  -6.672  27.538  0.00  0.00    +0.145 HD
ATOM     48 HE22 GLN A   3       8.634  -6.375  27.829  0.00  0.00    +0.145 HD
ATOM     49  OE1 GLN A   3       6.491  -4.625  26.277  0.00  0.00    -0.276 OA
ENDBRANCH  44  45
ENDBRANCH  43  44
ENDBRANCH   1  43
TORSDOF 19
ENDMDL
MODEL 2
REMARK VINA RESULT:      -6.3      2.228      7.453
REMARK  Name = VLQAVG-mmff94.pdb
REMARK  26 active torsions:
REMARK  status: ('A' for Active; 'I' for Inactive)
REMARK    1  A    between atoms: _1  and  _2
REMARK    2  A    between atoms: _2  and  _3
REMARK    3  A    between atoms: _2  and  _5
REMARK    4  A    between atoms: _5  and  _6
REMARK    5  A    between atoms: _5  and  _7
REMARK    6  A    between atoms: _17  and  _18
REMARK    7  A    between atoms: _18  and  _19
REMARK    8  A    between atoms: _18  and  _21
REMARK    9  A    between atoms: _21  and  _22
REMARK   10  A    between atoms: _22  and  _23
REMARK   11  A    between atoms: _22  and  _24
REMARK   12  A    between atoms: _36  and  _37
REMARK   13  A    between atoms: _37  and  _38
REMARK   14  A    between atoms: _37  and  _40
REMARK   15  A    between atoms: _40  and  _41
REMARK   16  A    between atoms: _41  and  _42
REMARK   17  A    between atoms: _53  and  _54
REMARK   18  A    between atoms: _54  and  _55
REMARK   19  A    between atoms: _54  and  _57
REMARK   20  A    between atoms: _63  and  _64
REMARK   21  A    between atoms: _64  and  _65
REMARK   22  A    between atoms: _64  and  _67
REMARK   23  A    between atoms: _67  and  _68
REMARK   24  A    between atoms: _67  and  _69
REMARK   25  A    between atoms: _79  and  _80
REMARK   26  A    between atoms: _80  and  _81
REMARK                            x       y       z     vdW  Elec       q    Type
REMARK                         _______ _______ _______ _____ _____    ______ ____
ROOT
ATOM      1  CA  GLN A   3       9.957   0.096  22.710  0.00  0.00    +0.159 C 
ENDROOT
BRANCH   1   4
ATOM      2  C   LEU A   2       9.122  -1.853  24.010  0.00  0.00    +0.234 C 
ATOM      3  O   LEU A   2      10.098  -2.546  23.725  0.00  0.00    -0.274 OA
ATOM      4  N   GLN A   3       8.980  -0.558  23.578  0.00  0.00    -0.302 N 
ATOM      5  H   GLN A   3       8.137  -0.030  23.794  0.00  0.00    +0.150 HD
BRANCH   2   6
ATOM      6  CA  LEU A   2       7.984  -2.365  24.917  0.00  0.00    +0.159 C 
BRANCH   6   8
ATOM      7  C   VAL A   1       6.215  -2.528  23.180  0.00  0.00    +0.231 C 
ATOM      8  N   LEU A   2       7.078  -3.128  24.065  0.00  0.00    -0.303 N 
ATOM      9  H   LEU A   2       7.320  -4.107  23.930  0.00  0.00    +0.149 HD
ATOM     10  O   VAL A   1       6.040  -1.312  23.130  0.00  0.00    -0.274 OA
BRANCH   7  11
ATOM     11  CA  VAL A   1       5.429  -3.515  22.283  0.00  0.00    +0.140 C 
BRANCH  11  12
ATOM     12  N   VAL A   1       5.606  -3.082  20.879  0.00  0.00    -0.320 NA
ATOM     13  H1  VAL A   1       6.427  -3.550  20.496  0.00  0.00    +0.119 HD
ATOM     14  H2  VAL A   1       4.821  -3.463  20.344  0.00  0.00    +0.119 HD
ENDBRANCH  11  12
BRANCH  11  15
ATOM     15  CB  VAL A   1       5.934  -4.960  22.496  0.00  0.00    +0.009 C 
ATOM     16  CG2 VAL A   1       4.863  -5.829  23.170  0.00  0.00    +0.009 C 
ATOM     17  CG1 VAL A   1       6.348  -5.619  21.174  0.00  0.00    +0.009 C 
ENDBRANCH  11  15
ENDBRANCH   7  11
ENDBRANCH   6   8
BRANCH   6  18
ATOM     18  CB  LEU A   2       8.568  -3.237  26.039  0.00  0.00    +0.034 C 
BRANCH  18  19
ATOM     19  CG  LEU A   2       8.394  -4.756  25.836  0.00  0.00    -0.015 C 
ATOM     20  CD2 LEU A   2       7.651  -5.412  27.000  0.00  0.00    +0.007 C 
ATOM     21  CD1 LEU A   2       9.766  -5.415  25.669  0.00  0.00    +0.007 C 
ENDBRANCH  18  19
ENDBRANCH   6  18
ENDBRANCH   2   6
ENDBRANCH   1   4
BRANCH   1  22
ATOM     22  C   GLN A   3      10.599   1.216  23.550  0.00  0.00    +0.234 C 
ATOM     23  N   ALA A   4      10.430   2.484  23.056  0.00  0.00    -0.303 N 
ATOM     24  H   ALA A   4       9.993   2.642  22.151  0.00  0.00    +0.149 HD
ATOM     25  O   GLN A   3      11.172   0.982  24.614  0.00  0.00    -0.274 OA
BRANCH  23  26
ATOM     26  CA  ALA A   4      10.846   3.673  23.788  0.00  0.00    +0.156 C 
ATOM     27  CB  ALA A   4      12.025   4.366  23.122  0.00  0.00    +0.038 C 
BRANCH  26  28
ATOM     28  C   ALA A   4       9.635   4.619  23.842  0.00  0.00    +0.234 C 
ATOM     29  O   ALA A   4       9.743   5.825  23.623  0.00  0.00    -0.274 OA
ATOM     30  N   VAL A   5       8.446   4.013  24.156  0.00  0.00    -0.302 N 
ATOM     31  H   VAL A   5       8.421   3.027  24.403  0.00  0.00    +0.150 HD
BRANCH  30  32
ATOM     32  CA  VAL A   5       7.174   4.733  24.259  0.00  0.00    +0.161 C 
BRANCH  32  33
ATOM     33  C   VAL A   5       6.419   4.012  25.400  0.00  0.00    +0.234 C 
ATOM     34  N   GLY A   6       6.831   2.732  25.668  0.00  0.00    -0.307 N 
ATOM     35  H   GLY A   6       7.559   2.288  25.113  0.00  0.00    +0.149 HD
ATOM     36  O   VAL A   5       5.525   4.565  26.043  0.00  0.00    -0.274 OA
BRANCH  34  37
ATOM     37  CA  GLY A   6       6.263   1.960  26.753  0.00  0.00    +0.175 C 
BRANCH  37  38
ATOM     38  C   GLY A   6       5.265   0.965  26.202  0.00  0.00    +0.242 C 
ATOM     39  O   GLY A   6       4.405   1.252  25.372  0.00  0.00    -0.299 OA
ENDBRANCH  37  38
ENDBRANCH  34  37
ENDBRANCH  32  33
BRANCH  32  40
ATOM     40  CB  VAL A   5       6.380   4.690  22.928  0.00  0.00    +0.012 C 
ATOM     41  CG2 VAL A   5       6.726   5.859  21.997  0.00  0.00    +0.009 C 
ATOM     42  CG1 VAL A   5       6.610   3.381  22.160  0.00  0.00    +0.009 C 
ENDBRANCH  32  40
ENDBRANCH  30  32
ENDBRANCH  26  28
ENDBRANCH  23  26
ENDBRANCH   1  22
BRANCH   1  43
ATOM     43  CB  GLN A   3       9.265   0.665  21.461  0.00  0.00    +0.041 C 
BRANCH  43  44
ATOM     44  CG  GLN A   3       8.724  -0.406  20.515  0.00  0.00    +0.098 C 
BRANCH  44  45
ATOM     45  CD  GLN A   3       7.479   0.023  19.768  0.00  0.00    +0.211 C 
ATOM     46  NE2 GLN A   3       6.337   0.139  20.501  0.00  0.00    -0.329 N 
ATOM     47 HE21 GLN A   3       5.499   0.411  20.003  0.00  0.00    +0.145 HD
ATOM     48 HE22 GLN A   3       6.246  -0.167  21.458  0.00  0.00    +0.145 HD
ATOM     49  OE1 GLN A   3       7.491   0.329  18.582  0.00  0.00    -0.276 OA
ENDBRANCH  44  45
ENDBRANCH  43  44
ENDBRANCH   1  43
TORSDOF 19
ENDMDL
MODEL 3
REMARK VINA RESULT:      -6.2      2.246      6.877
REMARK  Name = VLQAVG-mmff94.pdb
REMARK  26 active torsions:
REMARK  status: ('A' for Active; 'I' for Inactive)
REMARK    1  A    between atoms: _1  and  _2
REMARK    2  A    between atoms: _2  and  _3
REMARK    3  A    between atoms: _2  and  _5
REMARK    4  A    between atoms: _5  and  _6
REMARK    5  A    between atoms: _5  and  _7
REMARK    6  A    between atoms: _17  and  _18
REMARK    7  A    between atoms: _18  and  _19
REMARK    8  A    between atoms: _18  and  _21
REMARK    9  A    between atoms: _21  and  _22
REMARK   10  A    between atoms: _22  and  _23
REMARK   11  A    between atoms: _22  and  _24
REMARK   12  A    between atoms: _36  and  _37
REMARK   13  A    between atoms: _37  and  _38
REMARK   14  A    between atoms: _37  and  _40
REMARK   15  A    between atoms: _40  and  _41
REMARK   16  A    between atoms: _41  and  _42
REMARK   17  A    between atoms: _53  and  _54
REMARK   18  A    between atoms: _54  and  _55
REMARK   19  A    between atoms: _54  and  _57
REMARK   20  A    between atoms: _63  and  _64
REMARK   21  A    between atoms: _64  and  _65
REMARK   22  A    between atoms: _64  and  _67
REMARK   23  A    between atoms: _67  and  _68
REMARK   24  A    between atoms: _67  and  _69
REMARK   25  A    between atoms: _79  and  _80
REMARK   26  A    between atoms: _80  and  _81
REMARK                            x       y       z     vdW  Elec       q    Type
REMARK                         _______ _______ _______ _____ _____    ______ ____
ROOT
ATOM      1  CA  GLN A   3       7.077  -2.273  25.871  0.00  0.00    +0.159 C 
ENDROOT
BRANCH   1   4
ATOM      2  C   LEU A   2       5.797  -2.767  23.797  0.00  0.00    +0.234 C 
ATOM      3  O   LEU A   2       4.710  -2.664  24.363  0.00  0.00    -0.274 OA
ATOM      4  N   GLN A   3       6.992  -2.577  24.444  0.00  0.00    -0.302 N 
ATOM      5  H   GLN A   3       7.873  -2.717  23.955  0.00  0.00    +0.150 HD
BRANCH   2   6
ATOM      6  CA  LEU A   2       5.916  -3.082  22.291  0.00  0.00    +0.159 C 
BRANCH   6   8
ATOM      7  C   VAL A   1       7.029  -1.045  21.406  0.00  0.00    +0.231 C 
ATOM      8  N   LEU A   2       5.898  -1.802  21.590  0.00  0.00    -0.303 N 
ATOM      9  H   LEU A   2       5.093  -1.641  20.989  0.00  0.00    +0.149 HD
ATOM     10  O   VAL A   1       8.111  -1.313  21.925  0.00  0.00    -0.274 OA
BRANCH   7  11
ATOM     11  CA  VAL A   1       6.820   0.216  20.533  0.00  0.00    +0.140 C 
BRANCH  11  12
ATOM     12  N   VAL A   1       8.116   0.540  19.896  0.00  0.00    -0.320 NA
ATOM     13  H1  VAL A   1       8.193   1.554  19.814  0.00  0.00    +0.119 HD
ATOM     14  H2  VAL A   1       8.852   0.279  20.558  0.00  0.00    +0.119 HD
ENDBRANCH  11  12
BRANCH  11  15
ATOM     15  CB  VAL A   1       5.718  -0.032  19.478  0.00  0.00    +0.009 C 
ATOM     16  CG2 VAL A   1       4.944   1.257  19.169  0.00  0.00    +0.009 C 
ATOM     17  CG1 VAL A   1       6.297  -0.589  18.171  0.00  0.00    +0.009 C 
ENDBRANCH  11  15
ENDBRANCH   7  11
ENDBRANCH   6   8
BRANCH   6  18
ATOM     18  CB  LEU A   2       7.219  -3.851  22.024  0.00  0.00    +0.034 C 
BRANCH  18  19
ATOM     19  CG  LEU A   2       7.029  -5.334  21.643  0.00  0.00    -0.015 C 
ATOM     20  CD2 LEU A   2       6.036  -5.512  20.496  0.00  0.00    +0.007 C 
ATOM     21  CD1 LEU A   2       6.547  -6.122  22.865  0.00  0.00    +0.007 C 
ENDBRANCH  18  19
ENDBRANCH   6  18
ENDBRANCH   2   6
ENDBRANCH   1   4
BRANCH   1  22
ATOM     22  C   GLN A   3       8.079  -1.111  26.006  0.00  0.00    +0.234 C 
ATOM     23  N   ALA A   4       8.840  -0.866  24.892  0.00  0.00    -0.303 N 
ATOM     24  H   ALA A   4       8.797  -1.479  24.080  0.00  0.00    +0.149 HD
ATOM     25  O   GLN A   3       8.144  -0.425  27.026  0.00  0.00    -0.274 OA
BRANCH  23  26
ATOM     26  CA  ALA A   4       9.736   0.277  24.789  0.00  0.00    +0.156 C 
ATOM     27  CB  ALA A   4      10.888   0.012  23.831  0.00  0.00    +0.038 C 
BRANCH  26  28
ATOM     28  C   ALA A   4       8.898   1.468  24.295  0.00  0.00    +0.234 C 
ATOM     29  O   ALA A   4       8.582   1.594  23.112  0.00  0.00    -0.274 OA
ATOM     30  N   VAL A   5       8.546   2.366  25.269  0.00  0.00    -0.302 N 
ATOM     31  H   VAL A   5       8.895   2.259  26.218  0.00  0.00    +0.150 HD
BRANCH  30  32
ATOM     32  CA  VAL A   5       7.750   3.569  25.011  0.00  0.00    +0.161 C 
BRANCH  32  33
ATOM     33  C   VAL A   5       8.784   4.718  25.009  0.00  0.00    +0.234 C 
ATOM     34  N   GLY A   6       9.810   4.591  24.108  0.00  0.00    -0.307 N 
ATOM     35  H   GLY A   6       9.892   3.766  23.518  0.00  0.00    +0.149 HD
ATOM     36  O   VAL A   5       8.674   5.696  25.749  0.00  0.00    -0.274 OA
BRANCH  34  37
ATOM     37  CA  GLY A   6      10.813   5.622  23.945  0.00  0.00    +0.175 C 
BRANCH  37  38
ATOM     38  C   GLY A   6      11.998   5.065  23.186  0.00  0.00    +0.242 C 
ATOM     39  O   GLY A   6      13.138   5.015  23.645  0.00  0.00    -0.299 OA
ENDBRANCH  37  38
ENDBRANCH  34  37
ENDBRANCH  32  33
BRANCH  32  40
ATOM     40  CB  VAL A   5       6.659   3.779  26.093  0.00  0.00    +0.012 C 
ATOM     41  CG2 VAL A   5       5.453   4.567  25.569  0.00  0.00    +0.009 C 
ATOM     42  CG1 VAL A   5       6.151   2.449  26.668  0.00  0.00    +0.009 C 
ENDBRANCH  32  40
ENDBRANCH  30  32
ENDBRANCH  26  28
ENDBRANCH  23  26
ENDBRANCH   1  22
BRANCH   1  43
ATOM     43  CB  GLN A   3       7.549  -3.508  26.653  0.00  0.00    +0.041 C 
BRANCH  43  44
ATOM     44  CG  GLN A   3       7.918  -4.695  25.765  0.00  0.00    +0.098 C 
BRANCH  44  45
ATOM     45  CD  GLN A   3       9.359  -4.674  25.299  0.00  0.00    +0.211 C 
ATOM     46  NE2 GLN A   3      10.154  -5.693  25.727  0.00  0.00    -0.329 N 
ATOM     47 HE21 GLN A   3      11.122  -5.675  25.430  0.00  0.00    +0.145 HD
ATOM     48 HE22 GLN A   3       9.882  -6.368  26.426  0.00  0.00    +0.145 HD
ATOM     49  OE1 GLN A   3       9.789  -3.835  24.517  0.00  0.00    -0.276 OA
ENDBRANCH  44  45
ENDBRANCH  43  44
ENDBRANCH   1  43
TORSDOF 19
ENDMDL
MODEL 4
REMARK VINA RESULT:      -6.1      2.291      7.859
REMARK  Name = VLQAVG-mmff94.pdb
REMARK  26 active torsions:
REMARK  status: ('A' for Active; 'I' for Inactive)
REMARK    1  A    between atoms: _1  and  _2
REMARK    2  A    between atoms: _2  and  _3
REMARK    3  A    between atoms: _2  and  _5
REMARK    4  A    between atoms: _5  and  _6
REMARK    5  A    between atoms: _5  and  _7
REMARK    6  A    between atoms: _17  and  _18
REMARK    7  A    between atoms: _18  and  _19
REMARK    8  A    between atoms: _18  and  _21
REMARK    9  A    between atoms: _21  and  _22
REMARK   10  A    between atoms: _22  and  _23
REMARK   11  A    between atoms: _22  and  _24
REMARK   12  A    between atoms: _36  and  _37
REMARK   13  A    between atoms: _37  and  _38
REMARK   14  A    between atoms: _37  and  _40
REMARK   15  A    between atoms: _40  and  _41
REMARK   16  A    between atoms: _41  and  _42
REMARK   17  A    between atoms: _53  and  _54
REMARK   18  A    between atoms: _54  and  _55
REMARK   19  A    between atoms: _54  and  _57
REMARK   20  A    between atoms: _63  and  _64
REMARK   21  A    between atoms: _64  and  _65
REMARK   22  A    between atoms: _64  and  _67
REMARK   23  A    between atoms: _67  and  _68
REMARK   24  A    between atoms: _67  and  _69
REMARK   25  A    between atoms: _79  and  _80
REMARK   26  A    between atoms: _80  and  _81
REMARK                            x       y       z     vdW  Elec       q    Type
REMARK                         _______ _______ _______ _____ _____    ______ ____
ROOT
ATOM      1  CA  GLN A   3       8.751   0.543  21.516  0.00  0.00    +0.159 C 
ENDROOT
BRANCH   1   4
ATOM      2  C   LEU A   2       8.880  -1.871  22.099  0.00  0.00    +0.234 C 
ATOM      3  O   LEU A   2      10.095  -1.921  21.907  0.00  0.00    -0.274 OA
ATOM      4  N   GLN A   3       8.152  -0.717  21.951  0.00  0.00    -0.302 N 
ATOM      5  H   GLN A   3       7.142  -0.723  22.071  0.00  0.00    +0.150 HD
BRANCH   2   6
ATOM      6  CA  LEU A   2       8.067  -3.098  22.564  0.00  0.00    +0.159 C 
BRANCH   6   8
ATOM      7  C   VAL A   1       8.680  -3.833  24.856  0.00  0.00    +0.231 C 
ATOM      8  N   LEU A   2       7.967  -3.011  24.017  0.00  0.00    -0.303 N 
ATOM      9  H   LEU A   2       7.595  -2.137  24.381  0.00  0.00    +0.149 HD
ATOM     10  O   VAL A   1       9.349  -4.785  24.459  0.00  0.00    -0.274 OA
BRANCH   7  11
ATOM     11  CA  VAL A   1       8.527  -3.499  26.360  0.00  0.00    +0.140 C 
BRANCH  11  12
ATOM     12  N   VAL A   1       8.390  -2.030  26.480  0.00  0.00    -0.320 NA
ATOM     13  H1  VAL A   1       7.933  -1.676  25.640  0.00  0.00    +0.119 HD
ATOM     14  H2  VAL A   1       7.720  -1.849  27.233  0.00  0.00    +0.119 HD
ENDBRANCH  11  12
BRANCH  11  15
ATOM     15  CB  VAL A   1       7.303  -4.230  26.956  0.00  0.00    +0.009 C 
ATOM     16  CG2 VAL A   1       6.090  -3.296  27.054  0.00  0.00    +0.009 C 
ATOM     17  CG1 VAL A   1       6.916  -5.462  26.127  0.00  0.00    +0.009 C 
ENDBRANCH  11  15
ENDBRANCH   7  11
ENDBRANCH   6   8
BRANCH   6  18
ATOM     18  CB  LEU A   2       6.680  -3.081  21.903  0.00  0.00    +0.034 C 
BRANCH  18  19
ATOM     19  CG  LEU A   2       6.014  -4.464  21.759  0.00  0.00    -0.015 C 
ATOM     20  CD2 LEU A   2       5.020  -4.745  22.886  0.00  0.00    +0.007 C 
ATOM     21  CD1 LEU A   2       7.089  -5.555  21.741  0.00  0.00    +0.007 C 
ENDBRANCH  18  19
ENDBRANCH   6  18
ENDBRANCH   2   6
ENDBRANCH   1   4
BRANCH   1  22
ATOM     22  C   GLN A   3       9.355   1.192  22.776  0.00  0.00    +0.234 C 
ATOM     23  N   ALA A   4      10.007   2.379  22.564  0.00  0.00    -0.303 N 
ATOM     24  H   ALA A   4      10.153   2.739  21.623  0.00  0.00    +0.149 HD
ATOM     25  O   GLN A   3       9.208   0.698  23.894  0.00  0.00    -0.274 OA
BRANCH  23  26
ATOM     26  CA  ALA A   4      10.516   3.201  23.653  0.00  0.00    +0.156 C 
ATOM     27  CB  ALA A   4      11.724   4.022  23.229  0.00  0.00    +0.038 C 
BRANCH  26  28
ATOM     28  C   ALA A   4       9.372   4.129  24.095  0.00  0.00    +0.234 C 
ATOM     29  O   ALA A   4       9.582   5.269  24.506  0.00  0.00    -0.274 OA
ATOM     30  N   VAL A   5       8.119   3.581  23.997  0.00  0.00    -0.302 N 
ATOM     31  H   VAL A   5       8.002   2.609  23.724  0.00  0.00    +0.150 HD
BRANCH  30  32
ATOM     32  CA  VAL A   5       6.893   4.295  24.366  0.00  0.00    +0.161 C 
BRANCH  32  33
ATOM     33  C   VAL A   5       6.100   3.277  25.218  0.00  0.00    +0.234 C 
ATOM     34  N   GLY A   6       6.677   2.041  25.353  0.00  0.00    -0.307 N 
ATOM     35  H   GLY A   6       7.548   1.813  24.881  0.00  0.00    +0.149 HD
ATOM     36  O   VAL A   5       5.034   3.571  25.761  0.00  0.00    -0.274 OA
BRANCH  34  37
ATOM     37  CA  GLY A   6       6.082   1.009  26.178  0.00  0.00    +0.175 C 
BRANCH  37  38
ATOM     38  C   GLY A   6       5.572  -0.114  25.301  0.00  0.00    +0.242 C 
ATOM     39  O   GLY A   6       6.257  -0.675  24.448  0.00  0.00    -0.299 OA
ENDBRANCH  37  38
ENDBRANCH  34  37
ENDBRANCH  32  33
BRANCH  32  40
ATOM     40  CB  VAL A   5       6.093   4.746  23.117  0.00  0.00    +0.012 C 
ATOM     41  CG2 VAL A   5       6.978   5.421  22.062  0.00  0.00    +0.009 C 
ATOM     42  CG1 VAL A   5       5.358   3.576  22.448  0.00  0.00    +0.009 C 
ENDBRANCH  32  40
ENDBRANCH  30  32
ENDBRANCH  26  28
ENDBRANCH  23  26
ENDBRANCH   1  22
BRANCH   1  43
ATOM     43  CB  GLN A   3       7.686   1.450  20.880  0.00  0.00    +0.041 C 
BRANCH  43  44
ATOM     44  CG  GLN A   3       6.467   0.693  20.355  0.00  0.00    +0.098 C 
BRANCH  44  45
ATOM     45  CD  GLN A   3       6.508   0.447  18.862  0.00  0.00    +0.211 C 
ATOM     46  NE2 GLN A   3       5.319   0.500  18.201  0.00  0.00    -0.329 N 
ATOM     47 HE21 GLN A   3       5.339   0.322  17.205  0.00  0.00    +0.145 HD
ATOM     48 HE22 GLN A   3       4.421   0.559  18.657  0.00  0.00    +0.145 HD
ATOM     49  OE1 GLN A   3       7.554   0.281  18.247  0.00  0.00    -0.276 OA
ENDBRANCH  44  45
ENDBRANCH  43  44
ENDBRANCH   1  43
TORSDOF 19
ENDMDL
MODEL 5
REMARK VINA RESULT:      -6.1      2.112      6.718
REMARK  Name = VLQAVG-mmff94.pdb
REMARK  26 active torsions:
REMARK  status: ('A' for Active; 'I' for Inactive)
REMARK    1  A    between atoms: _1  and  _2
REMARK    2  A    between atoms: _2  and  _3
REMARK    3  A    between atoms: _2  and  _5
REMARK    4  A    between atoms: _5  and  _6
REMARK    5  A    between atoms: _5  and  _7
REMARK    6  A    between atoms: _17  and  _18
REMARK    7  A    between atoms: _18  and  _19
REMARK    8  A    between atoms: _18  and  _21
REMARK    9  A    between atoms: _21  and  _22
REMARK   10  A    between atoms: _22  and  _23
REMARK   11  A    between atoms: _22  and  _24
REMARK   12  A    between atoms: _36  and  _37
REMARK   13  A    between atoms: _37  and  _38
REMARK   14  A    between atoms: _37  and  _40
REMARK   15  A    between atoms: _40  and  _41
REMARK   16  A    between atoms: _41  and  _42
REMARK   17  A    between atoms: _53  and  _54
REMARK   18  A    between atoms: _54  and  _55
REMARK   19  A    between atoms: _54  and  _57
REMARK   20  A    between atoms: _63  and  _64
REMARK   21  A    between atoms: _64  and  _65
REMARK   22  A    between atoms: _64  and  _67
REMARK   23  A    between atoms: _67  and  _68
REMARK   24  A    between atoms: _67  and  _69
REMARK   25  A    between atoms: _79  and  _80
REMARK   26  A    between atoms: _80  and  _81
REMARK                            x       y       z     vdW  Elec       q    Type
REMARK                         _______ _______ _______ _____ _____    ______ ____
ROOT
ATOM      1  CA  GLN A   3       6.647  -2.948  26.307  0.00  0.00    +0.159 C 
ENDROOT
BRANCH   1   4
ATOM      2  C   LEU A   2       6.693  -2.142  23.954  0.00  0.00    +0.234 C 
ATOM      3  O   LEU A   2       7.309  -1.117  24.247  0.00  0.00    -0.274 OA
ATOM      4  N   GLN A   3       6.347  -3.090  24.883  0.00  0.00    -0.302 N 
ATOM      5  H   GLN A   3       5.796  -3.902  24.613  0.00  0.00    +0.150 HD
BRANCH   2   6
ATOM      6  CA  LEU A   2       6.287  -2.472  22.503  0.00  0.00    +0.159 C 
BRANCH   6   8
ATOM      7  C   VAL A   1       6.128  -1.122  20.424  0.00  0.00    +0.231 C 
ATOM      8  N   LEU A   2       6.614  -1.301  21.697  0.00  0.00    -0.303 N 
ATOM      9  H   LEU A   2       6.956  -0.494  22.212  0.00  0.00    +0.149 HD
ATOM     10  O   VAL A   1       5.497  -1.983  19.816  0.00  0.00    -0.274 OA
BRANCH   7  11
ATOM     11  CA  VAL A   1       6.493   0.241  19.787  0.00  0.00    +0.140 C 
BRANCH  11  12
ATOM     12  N   VAL A   1       7.834   0.105  19.175  0.00  0.00    -0.320 NA
ATOM     13  H1  VAL A   1       8.105  -0.878  19.202  0.00  0.00    +0.119 HD
ATOM     14  H2  VAL A   1       7.734   0.317  18.178  0.00  0.00    +0.119 HD
ENDBRANCH  11  12
BRANCH  11  15
ATOM     15  CB  VAL A   1       5.433   0.652  18.740  0.00  0.00    +0.009 C 
ATOM     16  CG2 VAL A   1       4.429   1.652  19.328  0.00  0.00    +0.009 C 
ATOM     17  CG1 VAL A   1       6.076   1.269  17.491  0.00  0.00    +0.009 C 
ENDBRANCH  11  15
ENDBRANCH   7  11
ENDBRANCH   6   8
BRANCH   6  18
ATOM     18  CB  LEU A   2       7.049  -3.716  22.022  0.00  0.00    +0.034 C 
BRANCH  18  19
ATOM     19  CG  LEU A   2       6.163  -4.941  21.715  0.00  0.00    -0.015 C 
ATOM     20  CD2 LEU A   2       4.864  -4.929  22.521  0.00  0.00    +0.007 C 
ATOM     21  CD1 LEU A   2       6.939  -6.227  22.014  0.00  0.00    +0.007 C 
ENDBRANCH  18  19
ENDBRANCH   6  18
ENDBRANCH   2   6
ENDBRANCH   1   4
BRANCH   1  22
ATOM     22  C   GLN A   3       5.950  -1.654  26.767  0.00  0.00    +0.234 C 
ATOM     23  N   ALA A   4       6.794  -0.646  27.157  0.00  0.00    -0.303 N 
ATOM     24  H   ALA A   4       7.799  -0.795  27.221  0.00  0.00    +0.149 HD
ATOM     25  O   GLN A   3       4.727  -1.527  26.731  0.00  0.00    -0.274 OA
BRANCH  23  26
ATOM     26  CA  ALA A   4       6.320   0.691  27.488  0.00  0.00    +0.156 C 
ATOM     27  CB  ALA A   4       7.113   1.309  28.629  0.00  0.00    +0.038 C 
BRANCH  26  28
ATOM     28  C   ALA A   4       6.458   1.549  26.220  0.00  0.00    +0.234 C 
ATOM     29  O   ALA A   4       5.523   1.704  25.435  0.00  0.00    -0.274 OA
ATOM     30  N   VAL A   5       7.696   2.111  26.039  0.00  0.00    -0.302 N 
ATOM     31  H   VAL A   5       8.458   1.892  26.674  0.00  0.00    +0.150 HD
BRANCH  30  32
ATOM     32  CA  VAL A   5       8.038   2.963  24.897  0.00  0.00    +0.161 C 
BRANCH  32  33
ATOM     33  C   VAL A   5       9.306   2.310  24.300  0.00  0.00    +0.234 C 
ATOM     34  N   GLY A   6       9.249   0.950  24.129  0.00  0.00    -0.307 N 
ATOM     35  H   GLY A   6       8.432   0.418  24.421  0.00  0.00    +0.149 HD
ATOM     36  O   VAL A   5      10.291   2.974  23.975  0.00  0.00    -0.274 OA
BRANCH  34  37
ATOM     37  CA  GLY A   6      10.335   0.213  23.517  0.00  0.00    +0.175 C 
BRANCH  37  38
ATOM     38  C   GLY A   6      10.044   0.004  22.047  0.00  0.00    +0.242 C 
ATOM     39  O   GLY A   6       9.502  -1.003  21.597  0.00  0.00    -0.299 OA
ENDBRANCH  37  38
ENDBRANCH  34  37
ENDBRANCH  32  33
BRANCH  32  40
ATOM     40  CB  VAL A   5       8.296   4.429  25.330  0.00  0.00    +0.012 C 
ATOM     41  CG2 VAL A   5       7.890   5.442  24.254  0.00  0.00    +0.009 C 
ATOM     42  CG1 VAL A   5       7.559   4.786  26.629  0.00  0.00    +0.009 C 
ENDBRANCH  32  40
ENDBRANCH  30  32
ENDBRANCH  26  28
ENDBRANCH  23  26
ENDBRANCH   1  22
BRANCH   1  43
ATOM     43  CB  GLN A   3       8.165  -2.871  26.527  0.00  0.00    +0.041 C 
BRANCH  43  44
ATOM     44  CG  GLN A   3       8.835  -4.236  26.685  0.00  0.00    +0.098 C 
BRANCH  44  45
ATOM     45  CD  GLN A   3       9.457  -4.753  25.406  0.00  0.00    +0.211 C 
ATOM     46  NE2 GLN A   3       9.808  -6.068  25.385  0.00  0.00    -0.329 N 
ATOM     47 HE21 GLN A   3      10.238  -6.415  24.537  0.00  0.00    +0.145 HD
ATOM     48 HE22 GLN A   3       9.802  -6.668  26.196  0.00  0.00    +0.145 HD
ATOM     49  OE1 GLN A   3       9.580  -4.060  24.402  0.00  0.00    -0.276 OA
ENDBRANCH  44  45
ENDBRANCH  43  44
ENDBRANCH   1  43
TORSDOF 19
ENDMDL
MODEL 6
REMARK VINA RESULT:      -6.1      2.091      7.468
REMARK  Name = VLQAVG-mmff94.pdb
REMARK  26 active torsions:
REMARK  status: ('A' for Active; 'I' for Inactive)
REMARK    1  A    between atoms: _1  and  _2
REMARK    2  A    between atoms: _2  and  _3
REMARK    3  A    between atoms: _2  and  _5
REMARK    4  A    between atoms: _5  and  _6
REMARK    5  A    between atoms: _5  and  _7
REMARK    6  A    between atoms: _17  and  _18
REMARK    7  A    between atoms: _18  and  _19
REMARK    8  A    between atoms: _18  and  _21
REMARK    9  A    between atoms: _21  and  _22
REMARK   10  A    between atoms: _22  and  _23
REMARK   11  A    between atoms: _22  and  _24
REMARK   12  A    between atoms: _36  and  _37
REMARK   13  A    between atoms: _37  and  _38
REMARK   14  A    between atoms: _37  and  _40
REMARK   15  A    between atoms: _40  and  _41
REMARK   16  A    between atoms: _41  and  _42
REMARK   17  A    between atoms: _53  and  _54
REMARK   18  A    between atoms: _54  and  _55
REMARK   19  A    between atoms: _54  and  _57
REMARK   20  A    between atoms: _63  and  _64
REMARK   21  A    between atoms: _64  and  _65
REMARK   22  A    between atoms: _64  and  _67
REMARK   23  A    between atoms: _67  and  _68
REMARK   24  A    between atoms: _67  and  _69
REMARK   25  A    between atoms: _79  and  _80
REMARK   26  A    between atoms: _80  and  _81
REMARK                            x       y       z     vdW  Elec       q    Type
REMARK                         _______ _______ _______ _____ _____    ______ ____
ROOT
ATOM      1  CA  GLN A   3       6.248  -0.970  26.679  0.00  0.00    +0.159 C 
ENDROOT
BRANCH   1   4
ATOM      2  C   LEU A   2       4.858  -3.015  26.951  0.00  0.00    +0.234 C 
ATOM      3  O   LEU A   2       4.437  -2.663  28.053  0.00  0.00    -0.274 OA
ATOM      4  N   GLN A   3       5.723  -2.250  26.209  0.00  0.00    -0.302 N 
ATOM      5  H   GLN A   3       6.088  -2.595  25.324  0.00  0.00    +0.150 HD
BRANCH   2   6
ATOM      6  CA  LEU A   2       4.419  -4.335  26.284  0.00  0.00    +0.159 C 
BRANCH   6   8
ATOM      7  C   VAL A   1       4.259  -4.885  23.867  0.00  0.00    +0.231 C 
ATOM      8  N   LEU A   2       4.929  -4.307  24.917  0.00  0.00    -0.303 N 
ATOM      9  H   LEU A   2       5.629  -3.594  24.724  0.00  0.00    +0.149 HD
ATOM     10  O   VAL A   1       3.256  -5.582  24.009  0.00  0.00    -0.274 OA
BRANCH   7  11
ATOM     11  CA  VAL A   1       4.906  -4.638  22.482  0.00  0.00    +0.140 C 
BRANCH  11  12
ATOM     12  N   VAL A   1       5.415  -3.248  22.468  0.00  0.00    -0.320 NA
ATOM     13  H1  VAL A   1       5.719  -3.024  21.521  0.00  0.00    +0.119 HD
ATOM     14  H2  VAL A   1       4.614  -2.631  22.633  0.00  0.00    +0.119 HD
ENDBRANCH  11  12
BRANCH  11  15
ATOM     15  CB  VAL A   1       6.039  -5.657  22.223  0.00  0.00    +0.009 C 
ATOM     16  CG2 VAL A   1       6.247  -5.887  20.720  0.00  0.00    +0.009 C 
ATOM     17  CG1 VAL A   1       7.366  -5.202  22.844  0.00  0.00    +0.009 C 
ENDBRANCH  11  15
ENDBRANCH   7  11
ENDBRANCH   6   8
BRANCH   6  18
ATOM     18  CB  LEU A   2       4.986  -5.526  27.072  0.00  0.00    +0.034 C 
BRANCH  18  19
ATOM     19  CG  LEU A   2       6.289  -5.232  27.841  0.00  0.00    -0.015 C 
ATOM     20  CD2 LEU A   2       7.531  -5.455  26.978  0.00  0.00    +0.007 C 
ATOM     21  CD1 LEU A   2       6.365  -6.120  29.087  0.00  0.00    +0.007 C 
ENDBRANCH  18  19
ENDBRANCH   6  18
ENDBRANCH   2   6
ENDBRANCH   1   4
BRANCH   1  22
ATOM     22  C   GLN A   3       5.448   0.121  25.944  0.00  0.00    +0.234 C 
ATOM     23  N   ALA A   4       6.167   0.863  25.043  0.00  0.00    -0.303 N 
ATOM     24  H   ALA A   4       7.174   0.749  24.952  0.00  0.00    +0.149 HD
ATOM     25  O   GLN A   3       4.238   0.269  26.121  0.00  0.00    -0.274 OA
BRANCH  23  26
ATOM     26  CA  ALA A   4       5.547   1.840  24.158  0.00  0.00    +0.156 C 
ATOM     27  CB  ALA A   4       5.078   3.074  24.914  0.00  0.00    +0.038 C 
BRANCH  26  28
ATOM     28  C   ALA A   4       6.598   2.230  23.105  0.00  0.00    +0.234 C 
ATOM     29  O   ALA A   4       6.346   3.023  22.199  0.00  0.00    -0.274 OA
ATOM     30  N   VAL A   5       7.817   1.622  23.259  0.00  0.00    -0.302 N 
ATOM     31  H   VAL A   5       7.954   0.917  23.978  0.00  0.00    +0.150 HD
BRANCH  30  32
ATOM     32  CA  VAL A   5       8.955   1.855  22.364  0.00  0.00    +0.161 C 
BRANCH  32  33
ATOM     33  C   VAL A   5       8.858   0.719  21.320  0.00  0.00    +0.234 C 
ATOM     34  N   GLY A   6       7.892   0.878  20.359  0.00  0.00    -0.307 N 
ATOM     35  H   GLY A   6       7.262   1.677  20.375  0.00  0.00    +0.149 HD
ATOM     36  O   VAL A   5       9.619  -0.250  21.336  0.00  0.00    -0.274 OA
BRANCH  34  37
ATOM     37  CA  GLY A   6       7.731  -0.070  19.277  0.00  0.00    +0.175 C 
BRANCH  37  38
ATOM     38  C   GLY A   6       6.285  -0.092  18.829  0.00  0.00    +0.242 C 
ATOM     39  O   GLY A   6       5.936  -0.289  17.667  0.00  0.00    -0.299 OA
ENDBRANCH  37  38
ENDBRANCH  34  37
ENDBRANCH  32  33
BRANCH  32  40
ATOM     40  CB  VAL A   5      10.303   1.818  23.129  0.00  0.00    +0.012 C 
ATOM     41  CG2 VAL A   5      10.936   3.207  23.275  0.00  0.00    +0.009 C 
ATOM     42  CG1 VAL A   5      10.156   1.209  24.530  0.00  0.00    +0.009 C 
ENDBRANCH  32  40
ENDBRANCH  30  32
ENDBRANCH  26  28
ENDBRANCH  23  26
ENDBRANCH   1  22
BRANCH   1  43
ATOM     43  CB  GLN A   3       7.749  -0.862  26.370  0.00  0.00    +0.041 C 
BRANCH  43  44
ATOM     44  CG  GLN A   3       8.317  -2.080  25.642  0.00  0.00    +0.098 C 
BRANCH  44  45
ATOM     45  CD  GLN A   3       8.381  -1.908  24.139  0.00  0.00    +0.211 C 
ATOM     46  NE2 GLN A   3       9.531  -2.304  23.527  0.00  0.00    -0.329 N 
ATOM     47 HE21 GLN A   3       9.584  -2.177  22.524  0.00  0.00    +0.145 HD
ATOM     48 HE22 GLN A   3      10.370  -2.572  24.019  0.00  0.00    +0.145 HD
ATOM     49  OE1 GLN A   3       7.431  -1.506  23.478  0.00  0.00    -0.276 OA
ENDBRANCH  44  45
ENDBRANCH  43  44
ENDBRANCH   1  43
TORSDOF 19
ENDMDL
MODEL 7
REMARK VINA RESULT:      -6.1      1.986      7.777
REMARK  Name = VLQAVG-mmff94.pdb
REMARK  26 active torsions:
REMARK  status: ('A' for Active; 'I' for Inactive)
REMARK    1  A    between atoms: _1  and  _2
REMARK    2  A    between atoms: _2  and  _3
REMARK    3  A    between atoms: _2  and  _5
REMARK    4  A    between atoms: _5  and  _6
REMARK    5  A    between atoms: _5  and  _7
REMARK    6  A    between atoms: _17  and  _18
REMARK    7  A    between atoms: _18  and  _19
REMARK    8  A    between atoms: _18  and  _21
REMARK    9  A    between atoms: _21  and  _22
REMARK   10  A    between atoms: _22  and  _23
REMARK   11  A    between atoms: _22  and  _24
REMARK   12  A    between atoms: _36  and  _37
REMARK   13  A    between atoms: _37  and  _38
REMARK   14  A    between atoms: _37  and  _40
REMARK   15  A    between atoms: _40  and  _41
REMARK   16  A    between atoms: _41  and  _42
REMARK   17  A    between atoms: _53  and  _54
REMARK   18  A    between atoms: _54  and  _55
REMARK   19  A    between atoms: _54  and  _57
REMARK   20  A    between atoms: _63  and  _64
REMARK   21  A    between atoms: _64  and  _65
REMARK   22  A    between atoms: _64  and  _67
REMARK   23  A    between atoms: _67  and  _68
REMARK   24  A    between atoms: _67  and  _69
REMARK   25  A    between atoms: _79  and  _80
REMARK   26  A    between atoms: _80  and  _81
REMARK                            x       y       z     vdW  Elec       q    Type
REMARK                         _______ _______ _______ _____ _____    ______ ____
ROOT
ATOM      1  CA  GLN A   3       6.998  -0.842  21.030  0.00  0.00    +0.159 C 
ENDROOT
BRANCH   1   4
ATOM      2  C   LEU A   2       6.654  -2.708  22.638  0.00  0.00    +0.234 C 
ATOM      3  O   LEU A   2       7.307  -3.501  21.960  0.00  0.00    -0.274 OA
ATOM      4  N   GLN A   3       6.468  -1.398  22.273  0.00  0.00    -0.302 N 
ATOM      5  H   GLN A   3       5.883  -0.783  22.834  0.00  0.00    +0.150 HD
BRANCH   2   6
ATOM      6  CA  LEU A   2       6.016  -3.106  23.986  0.00  0.00    +0.159 C 
BRANCH   6   8
ATOM      7  C   VAL A   1       3.923  -4.440  24.088  0.00  0.00    +0.231 C 
ATOM      8  N   LEU A   2       5.248  -4.323  23.744  0.00  0.00    -0.303 N 
ATOM      9  H   LEU A   2       5.636  -4.957  23.051  0.00  0.00    +0.149 HD
ATOM     10  O   VAL A   1       3.318  -3.591  24.739  0.00  0.00    -0.274 OA
BRANCH   7  11
ATOM     11  CA  VAL A   1       3.261  -5.765  23.637  0.00  0.00    +0.140 C 
BRANCH  11  12
ATOM     12  N   VAL A   1       4.171  -6.411  22.664  0.00  0.00    -0.320 NA
ATOM     13  H1  VAL A   1       3.810  -7.341  22.450  0.00  0.00    +0.119 HD
ATOM     14  H2  VAL A   1       4.089  -5.895  21.784  0.00  0.00    +0.119 HD
ENDBRANCH  11  12
BRANCH  11  15
ATOM     15  CB  VAL A   1       2.992  -6.679  24.854  0.00  0.00    +0.009 C 
ATOM     16  CG2 VAL A   1       2.370  -8.013  24.420  0.00  0.00    +0.009 C 
ATOM     17  CG1 VAL A   1       4.275  -6.964  25.646  0.00  0.00    +0.009 C 
ENDBRANCH  11  15
ENDBRANCH   7  11
ENDBRANCH   6   8
BRANCH   6  18
ATOM     18  CB  LEU A   2       7.117  -3.333  25.033  0.00  0.00    +0.034 C 
BRANCH  18  19
ATOM     19  CG  LEU A   2       7.435  -4.813  25.327  0.00  0.00    -0.015 C 
ATOM     20  CD2 LEU A   2       7.372  -5.130  26.821  0.00  0.00    +0.007 C 
ATOM     21  CD1 LEU A   2       8.827  -5.159  24.789  0.00  0.00    +0.007 C 
ENDBRANCH  18  19
ENDBRANCH   6  18
ENDBRANCH   2   6
ENDBRANCH   1   4
BRANCH   1  22
ATOM     22  C   GLN A   3       7.382   0.617  21.338  0.00  0.00    +0.234 C 
ATOM     23  N   ALA A   4       6.380   1.381  21.878  0.00  0.00    -0.303 N 
ATOM     24  H   ALA A   4       5.434   1.019  21.970  0.00  0.00    +0.149 HD
ATOM     25  O   GLN A   3       8.525   1.038  21.160  0.00  0.00    -0.274 OA
BRANCH  23  26
ATOM     26  CA  ALA A   4       6.601   2.737  22.361  0.00  0.00    +0.156 C 
ATOM     27  CB  ALA A   4       5.300   3.518  22.477  0.00  0.00    +0.038 C 
BRANCH  26  28
ATOM     28  C   ALA A   4       7.276   2.624  23.738  0.00  0.00    +0.234 C 
ATOM     29  O   ALA A   4       8.085   3.462  24.135  0.00  0.00    -0.274 OA
ATOM     30  N   VAL A   5       6.909   1.524  24.469  0.00  0.00    -0.302 N 
ATOM     31  H   VAL A   5       6.295   0.821  24.068  0.00  0.00    +0.150 HD
BRANCH  30  32
ATOM     32  CA  VAL A   5       7.434   1.229  25.805  0.00  0.00    +0.161 C 
BRANCH  32  33
ATOM     33  C   VAL A   5       8.618   0.269  25.546  0.00  0.00    +0.234 C 
ATOM     34  N   GLY A   6       9.271   0.441  24.352  0.00  0.00    -0.307 N 
ATOM     35  H   GLY A   6       8.955   1.132  23.676  0.00  0.00    +0.149 HD
ATOM     36  O   VAL A   5       8.967  -0.576  26.373  0.00  0.00    -0.274 OA
BRANCH  34  37
ATOM     37  CA  GLY A   6      10.440  -0.340  24.004  0.00  0.00    +0.175 C 
BRANCH  37  38
ATOM     38  C   GLY A   6      10.023  -1.546  23.190  0.00  0.00    +0.242 C 
ATOM     39  O   GLY A   6      10.334  -1.712  22.013  0.00  0.00    -0.299 OA
ENDBRANCH  37  38
ENDBRANCH  34  37
ENDBRANCH  32  33
BRANCH  32  40
ATOM     40  CB  VAL A   5       6.358   0.582  26.715  0.00  0.00    +0.012 C 
ATOM     41  CG2 VAL A   5       5.677   1.601  27.637  0.00  0.00    +0.009 C 
ATOM     42  CG1 VAL A   5       5.270  -0.134  25.904  0.00  0.00    +0.009 C 
ENDBRANCH  32  40
ENDBRANCH  30  32
ENDBRANCH  26  28
ENDBRANCH  23  26
ENDBRANCH   1  22
BRANCH   1  43
ATOM     43  CB  GLN A   3       5.939  -0.915  19.919  0.00  0.00    +0.041 C 
BRANCH  43  44
ATOM     44  CG  GLN A   3       6.452  -0.473  18.549  0.00  0.00    +0.098 C 
BRANCH  44  45
ATOM     45  CD  GLN A   3       5.838   0.823  18.064  0.00  0.00    +0.211 C 
ATOM     46  NE2 GLN A   3       4.752   1.278  18.749  0.00  0.00    -0.329 N 
ATOM     47 HE21 GLN A   3       4.329   2.136  18.420  0.00  0.00    +0.145 HD
ATOM     48 HE22 GLN A   3       4.266   0.746  19.455  0.00  0.00    +0.145 HD
ATOM     49  OE1 GLN A   3       6.321   1.485  17.153  0.00  0.00    -0.276 OA
ENDBRANCH  44  45
ENDBRANCH  43  44
ENDBRANCH   1  43
TORSDOF 19
ENDMDL
MODEL 8
REMARK VINA RESULT:      -6.1      2.080      7.680
REMARK  Name = VLQAVG-mmff94.pdb
REMARK  26 active torsions:
REMARK  status: ('A' for Active; 'I' for Inactive)
REMARK    1  A    between atoms: _1  and  _2
REMARK    2  A    between atoms: _2  and  _3
REMARK    3  A    between atoms: _2  and  _5
REMARK    4  A    between atoms: _5  and  _6
REMARK    5  A    between atoms: _5  and  _7
REMARK    6  A    between atoms: _17  and  _18
REMARK    7  A    between atoms: _18  and  _19
REMARK    8  A    between atoms: _18  and  _21
REMARK    9  A    between atoms: _21  and  _22
REMARK   10  A    between atoms: _22  and  _23
REMARK   11  A    between atoms: _22  and  _24
REMARK   12  A    between atoms: _36  and  _37
REMARK   13  A    between atoms: _37  and  _38
REMARK   14  A    between atoms: _37  and  _40
REMARK   15  A    between atoms: _40  and  _41
REMARK   16  A    between atoms: _41  and  _42
REMARK   17  A    between atoms: _53  and  _54
REMARK   18  A    between atoms: _54  and  _55
REMARK   19  A    between atoms: _54  and  _57
REMARK   20  A    between atoms: _63  and  _64
REMARK   21  A    between atoms: _64  and  _65
REMARK   22  A    between atoms: _64  and  _67
REMARK   23  A    between atoms: _67  and  _68
REMARK   24  A    between atoms: _67  and  _69
REMARK   25  A    between atoms: _79  and  _80
REMARK   26  A    between atoms: _80  and  _81
REMARK                            x       y       z     vdW  Elec       q    Type
REMARK                         _______ _______ _______ _____ _____    ______ ____
ROOT
ATOM      1  CA  GLN A   3       8.201  -1.793  26.215  0.00  0.00    +0.159 C 
ENDROOT
BRANCH   1   4
ATOM      2  C   LEU A   2       7.775  -4.236  26.030  0.00  0.00    +0.234 C 
ATOM      3  O   LEU A   2       8.186  -4.461  27.168  0.00  0.00    -0.274 OA
ATOM      4  N   GLN A   3       7.730  -2.973  25.494  0.00  0.00    -0.302 N 
ATOM      5  H   GLN A   3       7.429  -2.830  24.533  0.00  0.00    +0.150 HD
BRANCH   2   6
ATOM      6  CA  LEU A   2       7.234  -5.352  25.113  0.00  0.00    +0.159 C 
BRANCH   6   8
ATOM      7  C   VAL A   1       5.022  -5.976  26.057  0.00  0.00    +0.231 C 
ATOM      8  N   LEU A   2       5.778  -5.265  25.157  0.00  0.00    -0.303 N 
ATOM      9  H   LEU A   2       5.373  -4.444  24.712  0.00  0.00    +0.149 HD
ATOM     10  O   VAL A   1       5.491  -6.834  26.801  0.00  0.00    -0.274 OA
BRANCH   7  11
ATOM     11  CA  VAL A   1       3.509  -5.649  26.020  0.00  0.00    +0.140 C 
BRANCH  11  12
ATOM     12  N   VAL A   1       3.289  -4.452  26.864  0.00  0.00    -0.320 NA
ATOM     13  H1  VAL A   1       4.197  -4.062  27.117  0.00  0.00    +0.119 HD
ATOM     14  H2  VAL A   1       2.859  -3.738  26.269  0.00  0.00    +0.119 HD
ENDBRANCH  11  12
BRANCH  11  15
ATOM     15  CB  VAL A   1       3.041  -5.409  24.567  0.00  0.00    +0.009 C 
ATOM     16  CG2 VAL A   1       2.929  -6.731  23.794  0.00  0.00    +0.009 C 
ATOM     17  CG1 VAL A   1       1.688  -4.688  24.517  0.00  0.00    +0.009 C 
ENDBRANCH  11  15
ENDBRANCH   7  11
ENDBRANCH   6   8
BRANCH   6  18
ATOM     18  CB  LEU A   2       7.766  -5.154  23.686  0.00  0.00    +0.034 C 
BRANCH  18  19
ATOM     19  CG  LEU A   2       6.679  -4.945  22.612  0.00  0.00    -0.015 C 
ATOM     20  CD2 LEU A   2       6.757  -5.994  21.502  0.00  0.00    +0.007 C 
ATOM     21  CD1 LEU A   2       6.816  -3.546  22.004  0.00  0.00    +0.007 C 
ENDBRANCH  18  19
ENDBRANCH   6  18
ENDBRANCH   2   6
ENDBRANCH   1   4
BRANCH   1  22
ATOM     22  C   GLN A   3       6.950  -0.957  26.540  0.00  0.00    +0.234 C 
ATOM     23  N   ALA A   4       6.918   0.290  25.968  0.00  0.00    -0.303 N 
ATOM     24  H   ALA A   4       7.715   0.652  25.451  0.00  0.00    +0.149 HD
ATOM     25  O   GLN A   3       6.026  -1.406  27.218  0.00  0.00    -0.274 OA
BRANCH  23  26
ATOM     26  CA  ALA A   4       5.753   1.161  26.050  0.00  0.00    +0.156 C 
ATOM     27  CB  ALA A   4       5.965   2.300  27.035  0.00  0.00    +0.038 C 
BRANCH  26  28
ATOM     28  C   ALA A   4       5.504   1.719  24.639  0.00  0.00    +0.234 C 
ATOM     29  O   ALA A   4       4.405   2.155  24.298  0.00  0.00    -0.274 OA
ATOM     30  N   VAL A   5       6.592   1.682  23.806  0.00  0.00    -0.302 N 
ATOM     31  H   VAL A   5       7.457   1.243  24.109  0.00  0.00    +0.150 HD
BRANCH  30  32
ATOM     32  CA  VAL A   5       6.568   2.164  22.423  0.00  0.00    +0.161 C 
BRANCH  32  33
ATOM     33  C   VAL A   5       6.914   0.916  21.578  0.00  0.00    +0.234 C 
ATOM     34  N   GLY A   6       7.062   1.133  20.232  0.00  0.00    -0.307 N 
ATOM     35  H   GLY A   6       6.909   2.055  19.829  0.00  0.00    +0.149 HD
ATOM     36  O   VAL A   5       7.072  -0.194  22.088  0.00  0.00    -0.274 OA
BRANCH  34  37
ATOM     37  CA  GLY A   6       7.453   0.072  19.327  0.00  0.00    +0.175 C 
BRANCH  37  38
ATOM     38  C   GLY A   6       6.222  -0.522  18.677  0.00  0.00    +0.242 C 
ATOM     39  O   GLY A   6       5.847  -0.236  17.542  0.00  0.00    -0.299 OA
ENDBRANCH  37  38
ENDBRANCH  34  37
ENDBRANCH  32  33
BRANCH  32  40
ATOM     40  CB  VAL A   5       7.587   3.311  22.196  0.00  0.00    +0.012 C 
ATOM     41  CG2 VAL A   5       6.959   4.699  22.367  0.00  0.00    +0.009 C 
ATOM     42  CG1 VAL A   5       8.792   3.209  23.143  0.00  0.00    +0.009 C 
ENDBRANCH  32  40
ENDBRANCH  30  32
ENDBRANCH  26  28
ENDBRANCH  23  26
ENDBRANCH   1  22
BRANCH   1  43
ATOM     43  CB  GLN A   3       9.191  -0.998  25.349  0.00  0.00    +0.041 C 
BRANCH  43  44
ATOM     44  CG  GLN A   3       9.659  -1.748  24.102  0.00  0.00    +0.098 C 
BRANCH  44  45
ATOM     45  CD  GLN A   3      10.201  -0.839  23.020  0.00  0.00    +0.211 C 
ATOM     46  NE2 GLN A   3      10.012  -1.241  21.733  0.00  0.00    -0.329 N 
ATOM     47 HE21 GLN A   3      10.386  -0.644  21.006  0.00  0.00    +0.145 HD
ATOM     48 HE22 GLN A   3       9.662  -2.150  21.470  0.00  0.00    +0.145 HD
ATOM     49  OE1 GLN A   3      10.719   0.244  23.264  0.00  0.00    -0.276 OA
ENDBRANCH  44  45
ENDBRANCH  43  44
ENDBRANCH   1  43
TORSDOF 19
ENDMDL
MODEL 9
REMARK VINA RESULT:      -6.1      2.098      4.247
REMARK  Name = VLQAVG-mmff94.pdb
REMARK  26 active torsions:
REMARK  status: ('A' for Active; 'I' for Inactive)
REMARK    1  A    between atoms: _1  and  _2
REMARK    2  A    between atoms: _2  and  _3
REMARK    3  A    between atoms: _2  and  _5
REMARK    4  A    between atoms: _5  and  _6
REMARK    5  A    between atoms: _5  and  _7
REMARK    6  A    between atoms: _17  and  _18
REMARK    7  A    between atoms: _18  and  _19
REMARK    8  A    between atoms: _18  and  _21
REMARK    9  A    between atoms: _21  and  _22
REMARK   10  A    between atoms: _22  and  _23
REMARK   11  A    between atoms: _22  and  _24
REMARK   12  A    between atoms: _36  and  _37
REMARK   13  A    between atoms: _37  and  _38
REMARK   14  A    between atoms: _37  and  _40
REMARK   15  A    between atoms: _40  and  _41
REMARK   16  A    between atoms: _41  and  _42
REMARK   17  A    between atoms: _53  and  _54
REMARK   18  A    between atoms: _54  and  _55
REMARK   19  A    between atoms: _54  and  _57
REMARK   20  A    between atoms: _63  and  _64
REMARK   21  A    between atoms: _64  and  _65
REMARK   22  A    between atoms: _64  and  _67
REMARK   23  A    between atoms: _67  and  _68
REMARK   24  A    between atoms: _67  and  _69
REMARK   25  A    between atoms: _79  and  _80
REMARK   26  A    between atoms: _80  and  _81
REMARK                            x       y       z     vdW  Elec       q    Type
REMARK                         _______ _______ _______ _____ _____    ______ ____
ROOT
ATOM      1  CA  GLN A   3       6.713  -0.392  27.095  0.00  0.00    +0.159 C 
ENDROOT
BRANCH   1   4
ATOM      2  C   LEU A   2       6.568   1.792  25.914  0.00  0.00    +0.234 C 
ATOM      3  O   LEU A   2       6.807   2.436  26.936  0.00  0.00    -0.274 OA
ATOM      4  N   GLN A   3       6.521   0.420  25.896  0.00  0.00    -0.302 N 
ATOM      5  H   GLN A   3       6.273  -0.077  25.044  0.00  0.00    +0.150 HD
BRANCH   2   6
ATOM      6  CA  LEU A   2       6.338   2.470  24.547  0.00  0.00    +0.159 C 
BRANCH   6   8
ATOM      7  C   VAL A   1       8.428   2.398  23.208  0.00  0.00    +0.231 C 
ATOM      8  N   LEU A   2       7.242   1.826  23.600  0.00  0.00    -0.303 N 
ATOM      9  H   LEU A   2       7.114   0.825  23.481  0.00  0.00    +0.149 HD
ATOM     10  O   VAL A   1       8.759   3.542  23.512  0.00  0.00    -0.274 OA
BRANCH   7  11
ATOM     11  CA  VAL A   1       9.298   1.500  22.294  0.00  0.00    +0.140 C 
BRANCH  11  12
ATOM     12  N   VAL A   1      10.403   2.334  21.769  0.00  0.00    -0.320 NA
ATOM     13  H1  VAL A   1      10.038   3.263  21.560  0.00  0.00    +0.119 HD
ATOM     14  H2  VAL A   1      11.061   2.484  22.540  0.00  0.00    +0.119 HD
ENDBRANCH  11  12
BRANCH  11  15
ATOM     15  CB  VAL A   1       9.834   0.283  23.081  0.00  0.00    +0.009 C 
ATOM     16  CG2 VAL A   1      10.475  -0.748  22.142  0.00  0.00    +0.009 C 
ATOM     17  CG1 VAL A   1      10.863   0.697  24.140  0.00  0.00    +0.009 C 
ENDBRANCH  11  15
ENDBRANCH   7  11
ENDBRANCH   6   8
BRANCH   6  18
ATOM     18  CB  LEU A   2       4.870   2.301  24.127  0.00  0.00    +0.034 C 
BRANCH  18  19
ATOM     19  CG  LEU A   2       4.174   3.599  23.668  0.00  0.00    -0.015 C 
ATOM     20  CD2 LEU A   2       3.569   3.466  22.271  0.00  0.00    +0.007 C 
ATOM     21  CD1 LEU A   2       5.177   4.756  23.684  0.00  0.00    +0.007 C 
ENDBRANCH  18  19
ENDBRANCH   6  18
ENDBRANCH   2   6
ENDBRANCH   1   4
BRANCH   1  22
ATOM     22  C   GLN A   3       7.917  -1.308  26.808  0.00  0.00    +0.234 C 
ATOM     23  N   ALA A   4       7.611  -2.631  26.622  0.00  0.00    -0.303 N 
ATOM     24  H   ALA A   4       6.664  -2.977  26.763  0.00  0.00    +0.149 HD
ATOM     25  O   GLN A   3       9.060  -0.863  26.701  0.00  0.00    -0.274 OA
BRANCH  23  26
ATOM     26  CA  ALA A   4       8.600  -3.615  26.204  0.00  0.00    +0.156 C 
ATOM     27  CB  ALA A   4       8.191  -5.030  26.584  0.00  0.00    +0.038 C 
BRANCH  26  28
ATOM     28  C   ALA A   4       8.742  -3.496  24.678  0.00  0.00    +0.234 C 
ATOM     29  O   ALA A   4       9.843  -3.443  24.130  0.00  0.00    -0.274 OA
ATOM     30  N   VAL A   5       7.555  -3.447  23.993  0.00  0.00    -0.302 N 
ATOM     31  H   VAL A   5       6.672  -3.417  24.495  0.00  0.00    +0.150 HD
BRANCH  30  32
ATOM     32  CA  VAL A   5       7.467  -3.334  22.534  0.00  0.00    +0.161 C 
BRANCH  32  33
ATOM     33  C   VAL A   5       6.989  -1.884  22.292  0.00  0.00    +0.234 C 
ATOM     34  N   GLY A   6       7.050  -1.449  20.993  0.00  0.00    -0.307 N 
ATOM     35  H   GLY A   6       7.428  -2.042  20.258  0.00  0.00    +0.149 HD
ATOM     36  O   VAL A   5       6.556  -1.178  23.204  0.00  0.00    -0.274 OA
BRANCH  34  37
ATOM     37  CA  GLY A   6       6.571  -0.139  20.605  0.00  0.00    +0.175 C 
BRANCH  37  38
ATOM     38  C   GLY A   6       7.425   0.403  19.478  0.00  0.00    +0.242 C 
ATOM     39  O   GLY A   6       7.275   0.087  18.299  0.00  0.00    -0.299 OA
ENDBRANCH  37  38
ENDBRANCH  34  37
ENDBRANCH  32  33
BRANCH  32  40
ATOM     40  CB  VAL A   5       6.482  -4.372  21.936  0.00  0.00    +0.012 C 
ATOM     41  CG2 VAL A   5       7.042  -5.799  21.961  0.00  0.00    +0.009 C 
ATOM     42  CG1 VAL A   5       5.132  -4.373  22.666  0.00  0.00    +0.009 C 
ENDBRANCH  32  40
ENDBRANCH  30  32
ENDBRANCH  26  28
ENDBRANCH  23  26
ENDBRANCH   1  22
BRANCH   1  43
ATOM     43  CB  GLN A   3       5.448  -1.213  27.392  0.00  0.00    +0.041 C 
BRANCH  43  44
ATOM     44  CG  GLN A   3       4.534  -1.396  26.181  0.00  0.00    +0.098 C 
BRANCH  44  45
ATOM     45  CD  GLN A   3       4.204  -2.845  25.890  0.00  0.00    +0.211 C 
ATOM     46  NE2 GLN A   3       2.936  -3.110  25.471  0.00  0.00    -0.329 N 
ATOM     47 HE21 GLN A   3       2.706  -4.079  25.289  0.00  0.00    +0.145 HD
ATOM     48 HE22 GLN A   3       2.187  -2.435  25.475  0.00  0.00    +0.145 HD
ATOM     49  OE1 GLN A   3       5.040  -3.739  25.947  0.00  0.00    -0.276 OA
ENDBRANCH  44  45
ENDBRANCH  43  44
ENDBRANCH   1  43
TORSDOF 19
ENDMDL
MODEL 10
REMARK VINA RESULT:      -6.1      2.129      7.684
REMARK  Name = VLQAVG-mmff94.pdb
REMARK  26 active torsions:
REMARK  status: ('A' for Active; 'I' for Inactive)
REMARK    1  A    between atoms: _1  and  _2
REMARK    2  A    between atoms: _2  and  _3
REMARK    3  A    between atoms: _2  and  _5
REMARK    4  A    between atoms: _5  and  _6
REMARK    5  A    between atoms: _5  and  _7
REMARK    6  A    between atoms: _17  and  _18
REMARK    7  A    between atoms: _18  and  _19
REMARK    8  A    between atoms: _18  and  _21
REMARK    9  A    between atoms: _21  and  _22
REMARK   10  A    between atoms: _22  and  _23
REMARK   11  A    between atoms: _22  and  _24
REMARK   12  A    between atoms: _36  and  _37
REMARK   13  A    between atoms: _37  and  _38
REMARK   14  A    between atoms: _37  and  _40
REMARK   15  A    between atoms: _40  and  _41
REMARK   16  A    between atoms: _41  and  _42
REMARK   17  A    between atoms: _53  and  _54
REMARK   18  A    between atoms: _54  and  _55
REMARK   19  A    between atoms: _54  and  _57
REMARK   20  A    between atoms: _63  and  _64
REMARK   21  A    between atoms: _64  and  _65
REMARK   22  A    between atoms: _64  and  _67
REMARK   23  A    between atoms: _67  and  _68
REMARK   24  A    between atoms: _67  and  _69
REMARK   25  A    between atoms: _79  and  _80
REMARK   26  A    between atoms: _80  and  _81
REMARK                            x       y       z     vdW  Elec       q    Type
REMARK                         _______ _______ _______ _____ _____    ______ ____
ROOT
ATOM      1  CA  GLN A   3       6.932  -0.746  20.887  0.00  0.00    +0.159 C 
ENDROOT
BRANCH   1   4
ATOM      2  C   LEU A   2       6.136  -2.573  22.375  0.00  0.00    +0.234 C 
ATOM      3  O   LEU A   2       6.180  -3.414  21.477  0.00  0.00    -0.274 OA
ATOM      4  N   GLN A   3       6.498  -1.263  22.183  0.00  0.00    -0.302 N 
ATOM      5  H   GLN A   3       6.404  -0.585  22.936  0.00  0.00    +0.150 HD
BRANCH   2   6
ATOM      6  CA  LEU A   2       5.705  -2.926  23.814  0.00  0.00    +0.159 C 
BRANCH   6   8
ATOM      7  C   VAL A   1       6.663  -5.055  24.661  0.00  0.00    +0.231 C 
ATOM      8  N   LEU A   2       6.787  -3.713  24.397  0.00  0.00    -0.303 N 
ATOM      9  H   LEU A   2       7.716  -3.309  24.318  0.00  0.00    +0.149 HD
ATOM     10  O   VAL A   1       5.603  -5.668  24.555  0.00  0.00    -0.274 OA
BRANCH   7  11
ATOM     11  CA  VAL A   1       7.963  -5.730  25.163  0.00  0.00    +0.140 C 
BRANCH  11  12
ATOM     12  N   VAL A   1       9.063  -5.304  24.268  0.00  0.00    -0.320 NA
ATOM     13  H1  VAL A   1       9.514  -6.137  23.889  0.00  0.00    +0.119 HD
ATOM     14  H2  VAL A   1       8.634  -4.852  23.456  0.00  0.00    +0.119 HD
ENDBRANCH  11  12
BRANCH  11  15
ATOM     15  CB  VAL A   1       8.245  -5.338  26.631  0.00  0.00    +0.009 C 
ATOM     16  CG2 VAL A   1       8.844  -3.928  26.725  0.00  0.00    +0.009 C 
ATOM     17  CG1 VAL A   1       6.976  -5.397  27.490  0.00  0.00    +0.009 C 
ENDBRANCH  11  15
ENDBRANCH   7  11
ENDBRANCH   6   8
BRANCH   6  18
ATOM     18  CB  LEU A   2       5.456  -1.635  24.611  0.00  0.00    +0.034 C 
BRANCH  18  19
ATOM     19  CG  LEU A   2       4.590  -1.811  25.874  0.00  0.00    -0.015 C 
ATOM     20  CD2 LEU A   2       5.435  -2.061  27.123  0.00  0.00    +0.007 C 
ATOM     21  CD1 LEU A   2       3.616  -2.976  25.674  0.00  0.00    +0.007 C 
ENDBRANCH  18  19
ENDBRANCH   6  18
ENDBRANCH   2   6
ENDBRANCH   1   4
BRANCH   1  22
ATOM     22  C   GLN A   3       7.334   0.722  21.121  0.00  0.00    +0.234 C 
ATOM     23  N   ALA A   4       6.367   1.505  21.697  0.00  0.00    -0.303 N 
ATOM     24  H   ALA A   4       5.429   1.148  21.862  0.00  0.00    +0.149 HD
ATOM     25  O   GLN A   3       8.462   1.136  20.856  0.00  0.00    -0.274 OA
BRANCH  23  26
ATOM     26  CA  ALA A   4       6.617   2.877  22.119  0.00  0.00    +0.156 C 
ATOM     27  CB  ALA A   4       5.325   3.639  22.368  0.00  0.00    +0.038 C 
BRANCH  26  28
ATOM     28  C   ALA A   4       7.450   2.810  23.409  0.00  0.00    +0.234 C 
ATOM     29  O   ALA A   4       8.463   3.492  23.565  0.00  0.00    -0.274 OA
ATOM     30  N   VAL A   5       6.978   1.936  24.354  0.00  0.00    -0.302 N 
ATOM     31  H   VAL A   5       6.181   1.339  24.149  0.00  0.00    +0.150 HD
BRANCH  30  32
ATOM     32  CA  VAL A   5       7.623   1.721  25.652  0.00  0.00    +0.161 C 
BRANCH  32  33
ATOM     33  C   VAL A   5       8.537   0.495  25.426  0.00  0.00    +0.234 C 
ATOM     34  N   GLY A   6       9.471   0.627  24.430  0.00  0.00    -0.307 N 
ATOM     35  H   GLY A   6       9.515   1.469  23.860  0.00  0.00    +0.149 HD
ATOM     36  O   VAL A   5       8.449  -0.522  26.116  0.00  0.00    -0.274 OA
BRANCH  34  37
ATOM     37  CA  GLY A   6      10.440  -0.412  24.152  0.00  0.00    +0.175 C 
BRANCH  37  38
ATOM     38  C   GLY A   6       9.887  -1.359  23.108  0.00  0.00    +0.242 C 
ATOM     39  O   GLY A   6       9.285  -2.395  23.382  0.00  0.00    -0.299 OA
ENDBRANCH  37  38
ENDBRANCH  34  37
ENDBRANCH  32  33
BRANCH  32  40
ATOM     40  CB  VAL A   5       6.584   1.464  26.774  0.00  0.00    +0.012 C 
ATOM     41  CG2 VAL A   5       6.894   2.246  28.055  0.00  0.00    +0.009 C 
ATOM     42  CG1 VAL A   5       5.156   1.815  26.331  0.00  0.00    +0.009 C 
ENDBRANCH  32  40
ENDBRANCH  30  32
ENDBRANCH  26  28
ENDBRANCH  23  26
ENDBRANCH   1  22
BRANCH   1  43
ATOM     43  CB  GLN A   3       5.793  -0.854  19.861  0.00  0.00    +0.041 C 
BRANCH  43  44
ATOM     44  CG  GLN A   3       6.216  -0.507  18.434  0.00  0.00    +0.098 C 
BRANCH  44  45
ATOM     45  CD  GLN A   3       5.759   0.865  17.987  0.00  0.00    +0.211 C 
ATOM     46  NE2 GLN A   3       4.698   1.402  18.650  0.00  0.00    -0.329 N 
ATOM     47 HE21 GLN A   3       4.380   2.313  18.345  0.00  0.00    +0.145 HD
ATOM     48 HE22 GLN A   3       4.130   0.895  19.312  0.00  0.00    +0.145 HD
ATOM     49  OE1 GLN A   3       6.346   1.511  17.126  0.00  0.00    -0.276 OA
ENDBRANCH  44  45
ENDBRANCH  43  44
ENDBRANCH   1  43
TORSDOF 19
ENDMDL
MODEL 11
REMARK VINA RESULT:      -6.1      2.622      7.638
REMARK  Name = VLQAVG-mmff94.pdb
REMARK  26 active torsions:
REMARK  status: ('A' for Active; 'I' for Inactive)
REMARK    1  A    between atoms: _1  and  _2
REMARK    2  A    between atoms: _2  and  _3
REMARK    3  A    between atoms: _2  and  _5
REMARK    4  A    between atoms: _5  and  _6
REMARK    5  A    between atoms: _5  and  _7
REMARK    6  A    between atoms: _17  and  _18
REMARK    7  A    between atoms: _18  and  _19
REMARK    8  A    between atoms: _18  and  _21
REMARK    9  A    between atoms: _21  and  _22
REMARK   10  A    between atoms: _22  and  _23
REMARK   11  A    between atoms: _22  and  _24
REMARK   12  A    between atoms: _36  and  _37
REMARK   13  A    between atoms: _37  and  _38
REMARK   14  A    between atoms: _37  and  _40
REMARK   15  A    between atoms: _40  and  _41
REMARK   16  A    between atoms: _41  and  _42
REMARK   17  A    between atoms: _53  and  _54
REMARK   18  A    between atoms: _54  and  _55
REMARK   19  A    between atoms: _54  and  _57
REMARK   20  A    between atoms: _63  and  _64
REMARK   21  A    between atoms: _64  and  _65
REMARK   22  A    between atoms: _64  and  _67
REMARK   23  A    between atoms: _67  and  _68
REMARK   24  A    between atoms: _67  and  _69
REMARK   25  A    between atoms: _79  and  _80
REMARK   26  A    between atoms: _80  and  _81
REMARK                            x       y       z     vdW  Elec       q    Type
REMARK                         _______ _______ _______ _____ _____    ______ ____
ROOT
ATOM      1  CA  GLN A   3       9.792   0.250  22.339  0.00  0.00    +0.159 C 
ENDROOT
BRANCH   1   4
ATOM      2  C   LEU A   2       9.382  -2.028  23.249  0.00  0.00    +0.234 C 
ATOM      3  O   LEU A   2      10.473  -2.450  22.864  0.00  0.00    -0.274 OA
ATOM      4  N   GLN A   3       8.978  -0.731  23.054  0.00  0.00    -0.302 N 
ATOM      5  H   GLN A   3       8.051  -0.429  23.343  0.00  0.00    +0.150 HD
BRANCH   2   6
ATOM      6  CA  LEU A   2       8.382  -2.912  24.023  0.00  0.00    +0.159 C 
BRANCH   6   8
ATOM      7  C   VAL A   1       7.965  -1.831  26.220  0.00  0.00    +0.231 C 
ATOM      8  N   LEU A   2       7.629  -2.025  24.902  0.00  0.00    -0.303 N 
ATOM      9  H   LEU A   2       7.046  -1.334  24.436  0.00  0.00    +0.149 HD
ATOM     10  O   VAL A   1       8.833  -2.482  26.797  0.00  0.00    -0.274 OA
BRANCH   7  11
ATOM     11  CA  VAL A   1       7.116  -0.759  26.946  0.00  0.00    +0.140 C 
BRANCH  11  12
ATOM     12  N   VAL A   1       7.731   0.559  26.673  0.00  0.00    -0.320 NA
ATOM     13  H1  VAL A   1       8.724   0.508  26.900  0.00  0.00    +0.119 HD
ATOM     14  H2  VAL A   1       7.706   0.700  25.659  0.00  0.00    +0.119 HD
ENDBRANCH  11  12
BRANCH  11  15
ATOM     15  CB  VAL A   1       5.649  -0.810  26.461  0.00  0.00    +0.009 C 
ATOM     16  CG2 VAL A   1       4.878  -1.950  27.140  0.00  0.00    +0.009 C 
ATOM     17  CG1 VAL A   1       4.916   0.512  26.727  0.00  0.00    +0.009 C 
ENDBRANCH  11  15
ENDBRANCH   7  11
ENDBRANCH   6   8
BRANCH   6  18
ATOM     18  CB  LEU A   2       7.460  -3.639  23.033  0.00  0.00    +0.034 C 
BRANCH  18  19
ATOM     19  CG  LEU A   2       6.088  -2.969  22.814  0.00  0.00    -0.015 C 
ATOM     20  CD2 LEU A   2       4.932  -3.859  23.270  0.00  0.00    +0.007 C 
ATOM     21  CD1 LEU A   2       5.913  -2.623  21.332  0.00  0.00    +0.007 C 
ENDBRANCH  18  19
ENDBRANCH   6  18
ENDBRANCH   2   6
ENDBRANCH   1   4
BRANCH   1  22
ATOM     22  C   GLN A   3      10.227   1.294  23.385  0.00  0.00    +0.234 C 
ATOM     23  N   ALA A   4      10.549   2.527  22.878  0.00  0.00    -0.303 N 
ATOM     24  H   ALA A   4      10.584   2.690  21.875  0.00  0.00    +0.149 HD
ATOM     25  O   GLN A   3      10.227   1.044  24.590  0.00  0.00    -0.274 OA
BRANCH  23  26
ATOM     26  CA  ALA A   4      10.845   3.672  23.728  0.00  0.00    +0.156 C 
ATOM     27  CB  ALA A   4      11.867   4.602  23.092  0.00  0.00    +0.038 C 
BRANCH  26  28
ATOM     28  C   ALA A   4       9.521   4.418  23.962  0.00  0.00    +0.234 C 
ATOM     29  O   ALA A   4       9.288   5.507  23.440  0.00  0.00    -0.274 OA
ATOM     30  N   VAL A   5       8.641   3.777  24.795  0.00  0.00    -0.302 N 
ATOM     31  H   VAL A   5       8.909   2.915  25.263  0.00  0.00    +0.150 HD
BRANCH  30  32
ATOM     32  CA  VAL A   5       7.325   4.315  25.149  0.00  0.00    +0.161 C 
BRANCH  32  33
ATOM     33  C   VAL A   5       7.410   4.561  26.673  0.00  0.00    +0.234 C 
ATOM     34  N   GLY A   6       6.853   3.589  27.463  0.00  0.00    -0.307 N 
ATOM     35  H   GLY A   6       6.381   2.786  27.053  0.00  0.00    +0.149 HD
ATOM     36  O   VAL A   5       7.967   5.554  27.143  0.00  0.00    -0.274 OA
BRANCH  34  37
ATOM     37  CA  GLY A   6       6.919   3.651  28.908  0.00  0.00    +0.175 C 
BRANCH  37  38
ATOM     38  C   GLY A   6       6.623   2.285  29.491  0.00  0.00    +0.242 C 
ATOM     39  O   GLY A   6       7.479   1.422  29.670  0.00  0.00    -0.299 OA
ENDBRANCH  37  38
ENDBRANCH  34  37
ENDBRANCH  32  33
BRANCH  32  40
ATOM     40  CB  VAL A   5       6.184   3.327  24.790  0.00  0.00    +0.012 C 
ATOM     41  CG2 VAL A   5       4.928   4.039  24.274  0.00  0.00    +0.009 C 
ATOM     42  CG1 VAL A   5       6.621   2.300  23.735  0.00  0.00    +0.009 C 
ENDBRANCH  32  40
ENDBRANCH  30  32
ENDBRANCH  26  28
ENDBRANCH  23  26
ENDBRANCH   1  22
BRANCH   1  43
ATOM     43  CB  GLN A   3       8.977   0.901  21.211  0.00  0.00    +0.041 C 
BRANCH  43  44
ATOM     44  CG  GLN A   3       8.359  -0.105  20.239  0.00  0.00    +0.098 C 
BRANCH  44  45
ATOM     45  CD  GLN A   3       7.196   0.458  19.449  0.00  0.00    +0.211 C 
ATOM     46  NE2 GLN A   3       6.134   0.915  20.168  0.00  0.00    -0.329 N 
ATOM     47 HE21 GLN A   3       5.348   1.278  19.643  0.00  0.00    +0.145 HD
ATOM     48 HE22 GLN A   3       6.024   0.781  21.161  0.00  0.00    +0.145 HD
ATOM     49  OE1 GLN A   3       7.220   0.574  18.230  0.00  0.00    -0.276 OA
ENDBRANCH  44  45
ENDBRANCH  43  44
ENDBRANCH   1  43
TORSDOF 19
ENDMDL
MODEL 12
REMARK VINA RESULT:      -6.0      1.758      7.898
REMARK  Name = VLQAVG-mmff94.pdb
REMARK  26 active torsions:
REMARK  status: ('A' for Active; 'I' for Inactive)
REMARK    1  A    between atoms: _1  and  _2
REMARK    2  A    between atoms: _2  and  _3
REMARK    3  A    between atoms: _2  and  _5
REMARK    4  A    between atoms: _5  and  _6
REMARK    5  A    between atoms: _5  and  _7
REMARK    6  A    between atoms: _17  and  _18
REMARK    7  A    between atoms: _18  and  _19
REMARK    8  A    between atoms: _18  and  _21
REMARK    9  A    between atoms: _21  and  _22
REMARK   10  A    between atoms: _22  and  _23
REMARK   11  A    between atoms: _22  and  _24
REMARK   12  A    between atoms: _36  and  _37
REMARK   13  A    between atoms: _37  and  _38
REMARK   14  A    between atoms: _37  and  _40
REMARK   15  A    between atoms: _40  and  _41
REMARK   16  A    between atoms: _41  and  _42
REMARK   17  A    between atoms: _53  and  _54
REMARK   18  A    between atoms: _54  and  _55
REMARK   19  A    between atoms: _54  and  _57
REMARK   20  A    between atoms: _63  and  _64
REMARK   21  A    between atoms: _64  and  _65
REMARK   22  A    between atoms: _64  and  _67
REMARK   23  A    between atoms: _67  and  _68
REMARK   24  A    between atoms: _67  and  _69
REMARK   25  A    between atoms: _79  and  _80
REMARK   26  A    between atoms: _80  and  _81
REMARK                            x       y       z     vdW  Elec       q    Type
REMARK                         _______ _______ _______ _____ _____    ______ ____
ROOT
ATOM      1  CA  GLN A   3       7.232  -2.212  21.602  0.00  0.00    +0.159 C 
ENDROOT
BRANCH   1   4
ATOM      2  C   LEU A   2       5.723  -4.027  22.387  0.00  0.00    +0.234 C 
ATOM      3  O   LEU A   2       5.573  -4.484  21.253  0.00  0.00    -0.274 OA
ATOM      4  N   GLN A   3       6.522  -2.942  22.649  0.00  0.00    -0.302 N 
ATOM      5  H   GLN A   3       6.585  -2.563  23.591  0.00  0.00    +0.150 HD
BRANCH   2   6
ATOM      6  CA  LEU A   2       5.056  -4.660  23.625  0.00  0.00    +0.159 C 
BRANCH   6   8
ATOM      7  C   VAL A   1       6.122  -5.244  25.792  0.00  0.00    +0.231 C 
ATOM      8  N   LEU A   2       5.911  -4.354  24.767  0.00  0.00    -0.303 N 
ATOM      9  H   LEU A   2       6.574  -3.595  24.629  0.00  0.00    +0.149 HD
ATOM     10  O   VAL A   1       5.511  -6.306  25.899  0.00  0.00    -0.274 OA
BRANCH   7  11
ATOM     11  CA  VAL A   1       7.156  -4.775  26.844  0.00  0.00    +0.140 C 
BRANCH  11  12
ATOM     12  N   VAL A   1       7.632  -5.974  27.569  0.00  0.00    -0.320 NA
ATOM     13  H1  VAL A   1       6.952  -6.723  27.441  0.00  0.00    +0.119 HD
ATOM     14  H2  VAL A   1       8.473  -6.306  27.087  0.00  0.00    +0.119 HD
ENDBRANCH  11  12
BRANCH  11  15
ATOM     15  CB  VAL A   1       8.324  -4.028  26.160  0.00  0.00    +0.009 C 
ATOM     16  CG2 VAL A   1       8.467  -2.602  26.709  0.00  0.00    +0.009 C 
ATOM     17  CG1 VAL A   1       9.656  -4.766  26.341  0.00  0.00    +0.009 C 
ENDBRANCH  11  15
ENDBRANCH   7  11
ENDBRANCH   6   8
BRANCH   6  18
ATOM     18  CB  LEU A   2       3.645  -4.080  23.807  0.00  0.00    +0.034 C 
BRANCH  18  19
ATOM     19  CG  LEU A   2       2.518  -5.129  23.888  0.00  0.00    -0.015 C 
ATOM     20  CD2 LEU A   2       2.133  -5.451  25.332  0.00  0.00    +0.007 C 
ATOM     21  CD1 LEU A   2       2.956  -6.413  23.177  0.00  0.00    +0.007 C 
ENDBRANCH  18  19
ENDBRANCH   6  18
ENDBRANCH   2   6
ENDBRANCH   1   4
BRANCH   1  22
ATOM     22  C   GLN A   3       8.500  -1.638  22.260  0.00  0.00    +0.234 C 
ATOM     23  N   ALA A   4       8.686  -0.290  22.087  0.00  0.00    -0.303 N 
ATOM     24  H   ALA A   4       8.071   0.253  21.486  0.00  0.00    +0.149 HD
ATOM     25  O   GLN A   3       9.255  -2.337  22.935  0.00  0.00    -0.274 OA
BRANCH  23  26
ATOM     26  CA  ALA A   4       9.750   0.447  22.754  0.00  0.00    +0.156 C 
ATOM     27  CB  ALA A   4      10.157   1.688  21.974  0.00  0.00    +0.038 C 
BRANCH  26  28
ATOM     28  C   ALA A   4       9.228   0.842  24.144  0.00  0.00    +0.234 C 
ATOM     29  O   ALA A   4       9.566   0.238  25.162  0.00  0.00    -0.274 OA
ATOM     30  N   VAL A   5       8.361   1.905  24.152  0.00  0.00    -0.302 N 
ATOM     31  H   VAL A   5       8.053   2.323  23.278  0.00  0.00    +0.150 HD
BRANCH  30  32
ATOM     32  CA  VAL A   5       7.749   2.441  25.370  0.00  0.00    +0.161 C 
BRANCH  32  33
ATOM     33  C   VAL A   5       6.355   1.773  25.423  0.00  0.00    +0.234 C 
ATOM     34  N   GLY A   6       6.170   0.866  26.434  0.00  0.00    -0.307 N 
ATOM     35  H   GLY A   6       6.926   0.629  27.072  0.00  0.00    +0.149 HD
ATOM     36  O   VAL A   5       5.463   2.061  24.624  0.00  0.00    -0.274 OA
BRANCH  34  37
ATOM     37  CA  GLY A   6       4.895   0.214  26.649  0.00  0.00    +0.175 C 
BRANCH  37  38
ATOM     38  C   GLY A   6       4.916  -1.165  26.023  0.00  0.00    +0.242 C 
ATOM     39  O   GLY A   6       5.589  -1.453  25.036  0.00  0.00    -0.299 OA
ENDBRANCH  37  38
ENDBRANCH  34  37
ENDBRANCH  32  33
BRANCH  32  40
ATOM     40  CB  VAL A   5       7.644   3.988  25.328  0.00  0.00    +0.012 C 
ATOM     41  CG2 VAL A   5       7.401   4.600  26.713  0.00  0.00    +0.009 C 
ATOM     42  CG1 VAL A   5       8.900   4.636  24.730  0.00  0.00    +0.009 C 
ENDBRANCH  32  40
ENDBRANCH  30  32
ENDBRANCH  26  28
ENDBRANCH  23  26
ENDBRANCH   1  22
BRANCH   1  43
ATOM     43  CB  GLN A   3       6.345  -1.094  21.034  0.00  0.00    +0.041 C 
BRANCH  43  44
ATOM     44  CG  GLN A   3       5.829  -1.373  19.623  0.00  0.00    +0.098 C 
BRANCH  44  45
ATOM     45  CD  GLN A   3       6.311  -0.370  18.596  0.00  0.00    +0.211 C 
ATOM     46  NE2 GLN A   3       5.376   0.124  17.739  0.00  0.00    -0.329 N 
ATOM     47 HE21 GLN A   3       5.696   0.784  17.041  0.00  0.00    +0.145 HD
ATOM     48 HE22 GLN A   3       4.435  -0.230  17.663  0.00  0.00    +0.145 HD
ATOM     49  OE1 GLN A   3       7.463   0.046  18.568  0.00  0.00    -0.276 OA
ENDBRANCH  44  45
ENDBRANCH  43  44
ENDBRANCH   1  43
TORSDOF 19
ENDMDL
MODEL 13
REMARK VINA RESULT:      -6.0      2.035      4.344
REMARK  Name = VLQAVG-mmff94.pdb
REMARK  26 active torsions:
REMARK  status: ('A' for Active; 'I' for Inactive)
REMARK    1  A    between atoms: _1  and  _2
REMARK    2  A    between atoms: _2  and  _3
REMARK    3  A    between atoms: _2  and  _5
REMARK    4  A    between atoms: _5  and  _6
REMARK    5  A    between atoms: _5  and  _7
REMARK    6  A    between atoms: _17  and  _18
REMARK    7  A    between atoms: _18  and  _19
REMARK    8  A    between atoms: _18  and  _21
REMARK    9  A    between atoms: _21  and  _22
REMARK   10  A    between atoms: _22  and  _23
REMARK   11  A    between atoms: _22  and  _24
REMARK   12  A    between atoms: _36  and  _37
REMARK   13  A    between atoms: _37  and  _38
REMARK   14  A    between atoms: _37  and  _40
REMARK   15  A    between atoms: _40  and  _41
REMARK   16  A    between atoms: _41  and  _42
REMARK   17  A    between atoms: _53  and  _54
REMARK   18  A    between atoms: _54  and  _55
REMARK   19  A    between atoms: _54  and  _57
REMARK   20  A    between atoms: _63  and  _64
REMARK   21  A    between atoms: _64  and  _65
REMARK   22  A    between atoms: _64  and  _67
REMARK   23  A    between atoms: _67  and  _68
REMARK   24  A    between atoms: _67  and  _69
REMARK   25  A    between atoms: _79  and  _80
REMARK   26  A    between atoms: _80  and  _81
REMARK                            x       y       z     vdW  Elec       q    Type
REMARK                         _______ _______ _______ _____ _____    ______ ____
ROOT
ATOM      1  CA  GLN A   3       7.885  -1.334  21.825  0.00  0.00    +0.159 C 
ENDROOT
BRANCH   1   4
ATOM      2  C   LEU A   2       7.235   1.066  21.753  0.00  0.00    +0.234 C 
ATOM      3  O   LEU A   2       7.322   1.121  20.526  0.00  0.00    -0.274 OA
ATOM      4  N   GLN A   3       7.472  -0.085  22.462  0.00  0.00    -0.302 N 
ATOM      5  H   GLN A   3       7.437  -0.082  23.479  0.00  0.00    +0.150 HD
BRANCH   2   6
ATOM      6  CA  LEU A   2       6.811   2.280  22.605  0.00  0.00    +0.159 C 
BRANCH   6   8
ATOM      7  C   VAL A   1       5.229   1.850  24.471  0.00  0.00    +0.231 C 
ATOM      8  N   LEU A   2       6.491   1.771  23.934  0.00  0.00    -0.303 N 
ATOM      9  H   LEU A   2       7.148   1.096  24.316  0.00  0.00    +0.149 HD
ATOM     10  O   VAL A   1       4.308   2.467  23.940  0.00  0.00    -0.274 OA
BRANCH   7  11
ATOM     11  CA  VAL A   1       5.071   1.143  25.839  0.00  0.00    +0.140 C 
BRANCH  11  12
ATOM     12  N   VAL A   1       5.015  -0.315  25.586  0.00  0.00    -0.320 NA
ATOM     13  H1  VAL A   1       5.967  -0.662  25.472  0.00  0.00    +0.119 HD
ATOM     14  H2  VAL A   1       4.682  -0.759  26.446  0.00  0.00    +0.119 HD
ENDBRANCH  11  12
BRANCH  11  15
ATOM     15  CB  VAL A   1       6.244   1.509  26.777  0.00  0.00    +0.009 C 
ATOM     16  CG2 VAL A   1       6.134   2.960  27.264  0.00  0.00    +0.009 C 
ATOM     17  CG1 VAL A   1       6.309   0.579  27.996  0.00  0.00    +0.009 C 
ENDBRANCH  11  15
ENDBRANCH   7  11
ENDBRANCH   6   8
BRANCH   6  18
ATOM     18  CB  LEU A   2       7.957   3.303  22.655  0.00  0.00    +0.034 C 
BRANCH  18  19
ATOM     19  CG  LEU A   2       8.835   3.230  23.921  0.00  0.00    -0.015 C 
ATOM     20  CD2 LEU A   2       9.074   4.608  24.537  0.00  0.00    +0.007 C 
ATOM     21  CD1 LEU A   2      10.180   2.582  23.579  0.00  0.00    +0.007 C 
ENDBRANCH  18  19
ENDBRANCH   6  18
ENDBRANCH   2   6
ENDBRANCH   1   4
BRANCH   1  22
ATOM     22  C   GLN A   3       6.611  -2.187  21.681  0.00  0.00    +0.234 C 
ATOM     23  N   ALA A   4       6.332  -3.000  22.750  0.00  0.00    -0.303 N 
ATOM     24  H   ALA A   4       6.981  -3.088  23.528  0.00  0.00    +0.149 HD
ATOM     25  O   GLN A   3       5.876  -2.096  20.698  0.00  0.00    -0.274 OA
BRANCH  23  26
ATOM     26  CA  ALA A   4       5.099  -3.769  22.850  0.00  0.00    +0.156 C 
ATOM     27  CB  ALA A   4       5.259  -5.174  22.292  0.00  0.00    +0.038 C 
BRANCH  26  28
ATOM     28  C   ALA A   4       4.721  -3.829  24.339  0.00  0.00    +0.234 C 
ATOM     29  O   ALA A   4       4.001  -2.978  24.862  0.00  0.00    -0.274 OA
ATOM     30  N   VAL A   5       5.251  -4.892  25.024  0.00  0.00    -0.302 N 
ATOM     31  H   VAL A   5       5.901  -5.526  24.566  0.00  0.00    +0.150 HD
BRANCH  30  32
ATOM     32  CA  VAL A   5       5.014  -5.135  26.449  0.00  0.00    +0.161 C 
BRANCH  32  33
ATOM     33  C   VAL A   5       6.416  -5.028  27.092  0.00  0.00    +0.234 C 
ATOM     34  N   GLY A   6       7.458  -4.854  26.218  0.00  0.00    -0.307 N 
ATOM     35  H   GLY A   6       7.304  -4.843  25.212  0.00  0.00    +0.149 HD
ATOM     36  O   VAL A   5       6.579  -5.067  28.313  0.00  0.00    -0.274 OA
BRANCH  34  37
ATOM     37  CA  GLY A   6       8.818  -4.669  26.680  0.00  0.00    +0.175 C 
BRANCH  37  38
ATOM     38  C   GLY A   6       9.783  -4.933  25.544  0.00  0.00    +0.242 C 
ATOM     39  O   GLY A   6       9.428  -5.150  24.387  0.00  0.00    -0.299 OA
ENDBRANCH  37  38
ENDBRANCH  34  37
ENDBRANCH  32  33
BRANCH  32  40
ATOM     40  CB  VAL A   5       4.374  -6.526  26.696  0.00  0.00    +0.012 C 
ATOM     41  CG2 VAL A   5       3.134  -6.452  27.596  0.00  0.00    +0.009 C 
ATOM     42  CG1 VAL A   5       3.976  -7.219  25.386  0.00  0.00    +0.009 C 
ENDBRANCH  32  40
ENDBRANCH  30  32
ENDBRANCH  26  28
ENDBRANCH  23  26
ENDBRANCH   1  22
BRANCH   1  43
ATOM     43  CB  GLN A   3       8.939  -2.048  22.684  0.00  0.00    +0.041 C 
BRANCH  43  44
ATOM     44  CG  GLN A   3       9.536  -1.170  23.784  0.00  0.00    +0.098 C 
BRANCH  44  45
ATOM     45  CD  GLN A   3       8.748  -1.205  25.076  0.00  0.00    +0.211 C 
ATOM     46  NE2 GLN A   3       9.235  -0.463  26.108  0.00  0.00    -0.329 N 
ATOM     47 HE21 GLN A   3       8.720  -0.495  26.979  0.00  0.00    +0.145 HD
ATOM     48 HE22 GLN A   3      10.137  -0.011  26.104  0.00  0.00    +0.145 HD
ATOM     49  OE1 GLN A   3       7.685  -1.804  25.187  0.00  0.00    -0.276 OA
ENDBRANCH  44  45
ENDBRANCH  43  44
ENDBRANCH   1  43
TORSDOF 19
ENDMDL
MODEL 14
REMARK VINA RESULT:      -6.0      2.274      7.141
REMARK  Name = VLQAVG-mmff94.pdb
REMARK  26 active torsions:
REMARK  status: ('A' for Active; 'I' for Inactive)
REMARK    1  A    between atoms: _1  and  _2
REMARK    2  A    between atoms: _2  and  _3
REMARK    3  A    between atoms: _2  and  _5
REMARK    4  A    between atoms: _5  and  _6
REMARK    5  A    between atoms: _5  and  _7
REMARK    6  A    between atoms: _17  and  _18
REMARK    7  A    between atoms: _18  and  _19
REMARK    8  A    between atoms: _18  and  _21
REMARK    9  A    between atoms: _21  and  _22
REMARK   10  A    between atoms: _22  and  _23
REMARK   11  A    between atoms: _22  and  _24
REMARK   12  A    between atoms: _36  and  _37
REMARK   13  A    between atoms: _37  and  _38
REMARK   14  A    between atoms: _37  and  _40
REMARK   15  A    between atoms: _40  and  _41
REMARK   16  A    between atoms: _41  and  _42
REMARK   17  A    between atoms: _53  and  _54
REMARK   18  A    between atoms: _54  and  _55
REMARK   19  A    between atoms: _54  and  _57
REMARK   20  A    between atoms: _63  and  _64
REMARK   21  A    between atoms: _64  and  _65
REMARK   22  A    between atoms: _64  and  _67
REMARK   23  A    between atoms: _67  and  _68
REMARK   24  A    between atoms: _67  and  _69
REMARK   25  A    between atoms: _79  and  _80
REMARK   26  A    between atoms: _80  and  _81
REMARK                            x       y       z     vdW  Elec       q    Type
REMARK                         _______ _______ _______ _____ _____    ______ ____
ROOT
ATOM      1  CA  GLN A   3       8.758   0.642  21.252  0.00  0.00    +0.159 C 
ENDROOT
BRANCH   1   4
ATOM      2  C   LEU A   2       9.054  -1.437  22.584  0.00  0.00    +0.234 C 
ATOM      3  O   LEU A   2      10.162  -1.668  22.101  0.00  0.00    -0.274 OA
ATOM      4  N   GLN A   3       8.312  -0.333  22.244  0.00  0.00    -0.302 N 
ATOM      5  H   GLN A   3       7.379  -0.199  22.628  0.00  0.00    +0.150 HD
BRANCH   2   6
ATOM      6  CA  LEU A   2       8.412  -2.350  23.649  0.00  0.00    +0.159 C 
BRANCH   6   8
ATOM      7  C   VAL A   1       6.107  -3.202  23.282  0.00  0.00    +0.231 C 
ATOM      8  N   LEU A   2       7.442  -3.190  22.955  0.00  0.00    -0.303 N 
ATOM      9  H   LEU A   2       7.728  -3.528  22.039  0.00  0.00    +0.149 HD
ATOM     10  O   VAL A   1       5.648  -2.616  24.260  0.00  0.00    -0.274 OA
BRANCH   7  11
ATOM     11  CA  VAL A   1       5.228  -4.066  22.346  0.00  0.00    +0.140 C 
BRANCH  11  12
ATOM     12  N   VAL A   1       5.669  -3.813  20.957  0.00  0.00    -0.320 NA
ATOM     13  H1  VAL A   1       5.495  -2.833  20.734  0.00  0.00    +0.119 HD
ATOM     14  H2  VAL A   1       6.689  -3.902  20.942  0.00  0.00    +0.119 HD
ENDBRANCH  11  12
BRANCH  11  15
ATOM     15  CB  VAL A   1       5.352  -5.563  22.714  0.00  0.00    +0.009 C 
ATOM     16  CG2 VAL A   1       6.591  -6.194  22.064  0.00  0.00    +0.009 C 
ATOM     17  CG1 VAL A   1       5.427  -5.771  24.233  0.00  0.00    +0.009 C 
ENDBRANCH  11  15
ENDBRANCH   7  11
ENDBRANCH   6   8
BRANCH   6  18
ATOM     18  CB  LEU A   2       9.500  -3.194  24.331  0.00  0.00    +0.034 C 
BRANCH  18  19
ATOM     19  CG  LEU A   2       8.975  -4.404  25.131  0.00  0.00    -0.015 C 
ATOM     20  CD2 LEU A   2       8.233  -3.980  26.398  0.00  0.00    +0.007 C 
ATOM     21  CD1 LEU A   2      10.144  -5.321  25.505  0.00  0.00    +0.007 C 
ENDBRANCH  18  19
ENDBRANCH   6  18
ENDBRANCH   2   6
ENDBRANCH   1   4
BRANCH   1  22
ATOM     22  C   GLN A   3       9.088   1.929  22.030  0.00  0.00    +0.234 C 
ATOM     23  N   ALA A   4       8.050   2.816  22.157  0.00  0.00    -0.303 N 
ATOM     24  H   ALA A   4       7.164   2.660  21.683  0.00  0.00    +0.149 HD
ATOM     25  O   GLN A   3      10.192   2.112  22.544  0.00  0.00    -0.274 OA
BRANCH  23  26
ATOM     26  CA  ALA A   4       8.138   4.016  22.977  0.00  0.00    +0.156 C 
ATOM     27  CB  ALA A   4       7.559   5.232  22.270  0.00  0.00    +0.038 C 
BRANCH  26  28
ATOM     28  C   ALA A   4       7.363   3.738  24.275  0.00  0.00    +0.234 C 
ATOM     29  O   ALA A   4       7.877   3.884  25.383  0.00  0.00    -0.274 OA
ATOM     30  N   VAL A   5       6.072   3.314  24.092  0.00  0.00    -0.302 N 
ATOM     31  H   VAL A   5       5.716   3.135  23.157  0.00  0.00    +0.150 HD
BRANCH  30  32
ATOM     32  CA  VAL A   5       5.162   2.994  25.196  0.00  0.00    +0.161 C 
BRANCH  32  33
ATOM     33  C   VAL A   5       5.542   1.551  25.599  0.00  0.00    +0.234 C 
ATOM     34  N   GLY A   6       6.402   1.439  26.661  0.00  0.00    -0.307 N 
ATOM     35  H   GLY A   6       6.787   2.264  27.115  0.00  0.00    +0.149 HD
ATOM     36  O   VAL A   5       5.079   0.568  25.018  0.00  0.00    -0.274 OA
BRANCH  34  37
ATOM     37  CA  GLY A   6       6.791   0.150  27.193  0.00  0.00    +0.175 C 
BRANCH  37  38
ATOM     38  C   GLY A   6       8.081  -0.301  26.543  0.00  0.00    +0.242 C 
ATOM     39  O   GLY A   6       8.768   0.420  25.823  0.00  0.00    -0.299 OA
ENDBRANCH  37  38
ENDBRANCH  34  37
ENDBRANCH  32  33
BRANCH  32  40
ATOM     40  CB  VAL A   5       3.676   3.098  24.763  0.00  0.00    +0.012 C 
ATOM     41  CG2 VAL A   5       2.712   3.054  25.954  0.00  0.00    +0.009 C 
ATOM     42  CG1 VAL A   5       3.395   4.378  23.964  0.00  0.00    +0.009 C 
ENDBRANCH  32  40
ENDBRANCH  30  32
ENDBRANCH  26  28
ENDBRANCH  23  26
ENDBRANCH   1  22
BRANCH   1  43
ATOM     43  CB  GLN A   3       7.654   0.889  20.212  0.00  0.00    +0.041 C 
BRANCH  43  44
ATOM     44  CG  GLN A   3       7.663  -0.109  19.055  0.00  0.00    +0.098 C 
BRANCH  44  45
ATOM     45  CD  GLN A   3       6.278  -0.535  18.617  0.00  0.00    +0.211 C 
ATOM     46  NE2 GLN A   3       5.482  -1.097  19.568  0.00  0.00    -0.329 N 
ATOM     47 HE21 GLN A   3       4.560  -1.397  19.276  0.00  0.00    +0.145 HD
ATOM     48 HE22 GLN A   3       5.800  -1.361  20.488  0.00  0.00    +0.145 HD
ATOM     49  OE1 GLN A   3       5.847  -0.327  17.489  0.00  0.00    -0.276 OA
ENDBRANCH  44  45
ENDBRANCH  43  44
ENDBRANCH   1  43
TORSDOF 19
ENDMDL
MODEL 15
REMARK VINA RESULT:      -6.0      2.223      5.754
REMARK  Name = VLQAVG-mmff94.pdb
REMARK  26 active torsions:
REMARK  status: ('A' for Active; 'I' for Inactive)
REMARK    1  A    between atoms: _1  and  _2
REMARK    2  A    between atoms: _2  and  _3
REMARK    3  A    between atoms: _2  and  _5
REMARK    4  A    between atoms: _5  and  _6
REMARK    5  A    between atoms: _5  and  _7
REMARK    6  A    between atoms: _17  and  _18
REMARK    7  A    between atoms: _18  and  _19
REMARK    8  A    between atoms: _18  and  _21
REMARK    9  A    between atoms: _21  and  _22
REMARK   10  A    between atoms: _22  and  _23
REMARK   11  A    between atoms: _22  and  _24
REMARK   12  A    between atoms: _36  and  _37
REMARK   13  A    between atoms: _37  and  _38
REMARK   14  A    between atoms: _37  and  _40
REMARK   15  A    between atoms: _40  and  _41
REMARK   16  A    between atoms: _41  and  _42
REMARK   17  A    between atoms: _53  and  _54
REMARK   18  A    between atoms: _54  and  _55
REMARK   19  A    between atoms: _54  and  _57
REMARK   20  A    between atoms: _63  and  _64
REMARK   21  A    between atoms: _64  and  _65
REMARK   22  A    between atoms: _64  and  _67
REMARK   23  A    between atoms: _67  and  _68
REMARK   24  A    between atoms: _67  and  _69
REMARK   25  A    between atoms: _79  and  _80
REMARK   26  A    between atoms: _80  and  _81
REMARK                            x       y       z     vdW  Elec       q    Type
REMARK                         _______ _______ _______ _____ _____    ______ ____
ROOT
ATOM      1  CA  GLN A   3       6.675  -0.215  21.198  0.00  0.00    +0.159 C 
ENDROOT
BRANCH   1   4
ATOM      2  C   LEU A   2       6.651   2.077  22.163  0.00  0.00    +0.234 C 
ATOM      3  O   LEU A   2       5.756   2.458  21.407  0.00  0.00    -0.274 OA
ATOM      4  N   GLN A   3       7.143   0.797  22.143  0.00  0.00    -0.302 N 
ATOM      5  H   GLN A   3       7.916   0.530  22.749  0.00  0.00    +0.150 HD
BRANCH   2   6
ATOM      6  CA  LEU A   2       7.274   2.999  23.232  0.00  0.00    +0.159 C 
BRANCH   6   8
ATOM      7  C   VAL A   1       6.839   2.579  25.641  0.00  0.00    +0.231 C 
ATOM      8  N   LEU A   2       7.407   2.203  24.448  0.00  0.00    -0.303 N 
ATOM      9  H   LEU A   2       7.668   1.230  24.310  0.00  0.00    +0.149 HD
ATOM     10  O   VAL A   1       6.294   3.667  25.815  0.00  0.00    -0.274 OA
BRANCH   7  11
ATOM     11  CA  VAL A   1       6.992   1.539  26.777  0.00  0.00    +0.140 C 
BRANCH  11  12
ATOM     12  N   VAL A   1       7.208   2.282  28.039  0.00  0.00    -0.320 NA
ATOM     13  H1  VAL A   1       6.369   2.824  28.244  0.00  0.00    +0.119 HD
ATOM     14  H2  VAL A   1       7.258   1.591  28.793  0.00  0.00    +0.119 HD
ENDBRANCH  11  12
BRANCH  11  15
ATOM     15  CB  VAL A   1       5.740   0.637  26.860  0.00  0.00    +0.009 C 
ATOM     16  CG2 VAL A   1       4.501   1.443  27.276  0.00  0.00    +0.009 C 
ATOM     17  CG1 VAL A   1       5.452  -0.062  25.525  0.00  0.00    +0.009 C 
ENDBRANCH  11  15
ENDBRANCH   7  11
ENDBRANCH   6   8
BRANCH   6  18
ATOM     18  CB  LEU A   2       8.638   3.510  22.743  0.00  0.00    +0.034 C 
BRANCH  18  19
ATOM     19  CG  LEU A   2       9.648   3.833  23.862  0.00  0.00    -0.015 C 
ATOM     20  CD2 LEU A   2       9.515   5.272  24.361  0.00  0.00    +0.007 C 
ATOM     21  CD1 LEU A   2      11.074   3.598  23.355  0.00  0.00    +0.007 C 
ENDBRANCH  18  19
ENDBRANCH   6  18
ENDBRANCH   2   6
ENDBRANCH   1   4
BRANCH   1  22
ATOM     22  C   GLN A   3       6.942  -1.580  21.859  0.00  0.00    +0.234 C 
ATOM     23  N   ALA A   4       5.820  -2.272  22.238  0.00  0.00    -0.303 N 
ATOM     24  H   ALA A   4       4.895  -1.854  22.167  0.00  0.00    +0.149 HD
ATOM     25  O   GLN A   3       8.080  -2.030  21.982  0.00  0.00    -0.274 OA
BRANCH  23  26
ATOM     26  CA  ALA A   4       5.874  -3.635  22.749  0.00  0.00    +0.156 C 
ATOM     27  CB  ALA A   4       6.992  -4.440  22.104  0.00  0.00    +0.038 C 
BRANCH  26  28
ATOM     28  C   ALA A   4       6.095  -3.542  24.267  0.00  0.00    +0.234 C 
ATOM     29  O   ALA A   4       5.187  -3.756  25.070  0.00  0.00    -0.274 OA
ATOM     30  N   VAL A   5       7.368  -3.201  24.643  0.00  0.00    -0.302 N 
ATOM     31  H   VAL A   5       8.064  -2.960  23.942  0.00  0.00    +0.150 HD
BRANCH  30  32
ATOM     32  CA  VAL A   5       7.790  -3.059  26.039  0.00  0.00    +0.161 C 
BRANCH  32  33
ATOM     33  C   VAL A   5       8.660  -1.781  26.048  0.00  0.00    +0.234 C 
ATOM     34  N   GLY A   6       9.088  -1.347  24.819  0.00  0.00    -0.307 N 
ATOM     35  H   GLY A   6       8.873  -1.870  23.973  0.00  0.00    +0.149 HD
ATOM     36  O   VAL A   5       8.925  -1.179  27.089  0.00  0.00    -0.274 OA
BRANCH  34  37
ATOM     37  CA  GLY A   6       9.852  -0.127  24.667  0.00  0.00    +0.175 C 
BRANCH  37  38
ATOM     38  C   GLY A   6      10.563  -0.134  23.330  0.00  0.00    +0.242 C 
ATOM     39  O   GLY A   6      10.131   0.429  22.327  0.00  0.00    -0.299 OA
ENDBRANCH  37  38
ENDBRANCH  34  37
ENDBRANCH  32  33
BRANCH  32  40
ATOM     40  CB  VAL A   5       8.584  -4.298  26.528  0.00  0.00    +0.012 C 
ATOM     41  CG2 VAL A   5       7.672  -5.409  27.062  0.00  0.00    +0.009 C 
ATOM     42  CG1 VAL A   5       9.467  -4.892  25.421  0.00  0.00    +0.009 C 
ENDBRANCH  32  40
ENDBRANCH  30  32
ENDBRANCH  26  28
ENDBRANCH  23  26
ENDBRANCH   1  22
BRANCH   1  43
ATOM     43  CB  GLN A   3       7.426  -0.088  19.863  0.00  0.00    +0.041 C 
BRANCH  43  44
ATOM     44  CG  GLN A   3       6.553  -0.355  18.637  0.00  0.00    +0.098 C 
BRANCH  44  45
ATOM     45  CD  GLN A   3       5.927   0.896  18.058  0.00  0.00    +0.211 C 
ATOM     46  NE2 GLN A   3       4.822   1.376  18.692  0.00  0.00    -0.329 N 
ATOM     47 HE21 GLN A   3       4.392   2.204  18.299  0.00  0.00    +0.145 HD
ATOM     48 HE22 GLN A   3       4.330   0.883  19.422  0.00  0.00    +0.145 HD
ATOM     49  OE1 GLN A   3       6.418   1.505  17.115  0.00  0.00    -0.276 OA
ENDBRANCH  44  45
ENDBRANCH  43  44
ENDBRANCH   1  43
TORSDOF 19
ENDMDL
MODEL 16
REMARK VINA RESULT:      -6.0      2.094      7.511
REMARK  Name = VLQAVG-mmff94.pdb
REMARK  26 active torsions:
REMARK  status: ('A' for Active; 'I' for Inactive)
REMARK    1  A    between atoms: _1  and  _2
REMARK    2  A    between atoms: _2  and  _3
REMARK    3  A    between atoms: _2  and  _5
REMARK    4  A    between atoms: _5  and  _6
REMARK    5  A    between atoms: _5  and  _7
REMARK    6  A    between atoms: _17  and  _18
REMARK    7  A    between atoms: _18  and  _19
REMARK    8  A    between atoms: _18  and  _21
REMARK    9  A    between atoms: _21  and  _22
REMARK   10  A    between atoms: _22  and  _23
REMARK   11  A    between atoms: _22  and  _24
REMARK   12  A    between atoms: _36  and  _37
REMARK   13  A    between atoms: _37  and  _38
REMARK   14  A    between atoms: _37  and  _40
REMARK   15  A    between atoms: _40  and  _41
REMARK   16  A    between atoms: _41  and  _42
REMARK   17  A    between atoms: _53  and  _54
REMARK   18  A    between atoms: _54  and  _55
REMARK   19  A    between atoms: _54  and  _57
REMARK   20  A    between atoms: _63  and  _64
REMARK   21  A    between atoms: _64  and  _65
REMARK   22  A    between atoms: _64  and  _67
REMARK   23  A    between atoms: _67  and  _68
REMARK   24  A    between atoms: _67  and  _69
REMARK   25  A    between atoms: _79  and  _80
REMARK   26  A    between atoms: _80  and  _81
REMARK                            x       y       z     vdW  Elec       q    Type
REMARK                         _______ _______ _______ _____ _____    ______ ____
ROOT
ATOM      1  CA  GLN A   3       6.156  -0.515  26.576  0.00  0.00    +0.159 C 
ENDROOT
BRANCH   1   4
ATOM      2  C   LEU A   2       4.793  -2.589  26.411  0.00  0.00    +0.234 C 
ATOM      3  O   LEU A   2       4.142  -2.321  27.421  0.00  0.00    -0.274 OA
ATOM      4  N   GLN A   3       5.773  -1.764  25.920  0.00  0.00    -0.302 N 
ATOM      5  H   GLN A   3       6.324  -2.040  25.110  0.00  0.00    +0.150 HD
BRANCH   2   6
ATOM      6  CA  LEU A   2       4.537  -3.863  25.579  0.00  0.00    +0.159 C 
BRANCH   6   8
ATOM      7  C   VAL A   1       4.677  -4.069  23.108  0.00  0.00    +0.231 C 
ATOM      8  N   LEU A   2       5.225  -3.680  24.306  0.00  0.00    -0.303 N 
ATOM      9  H   LEU A   2       5.974  -2.991  24.305  0.00  0.00    +0.149 HD
ATOM     10  O   VAL A   1       3.636  -4.716  23.021  0.00  0.00    -0.274 OA
BRANCH   7  11
ATOM     11  CA  VAL A   1       5.512  -3.675  21.865  0.00  0.00    +0.140 C 
BRANCH  11  12
ATOM     12  N   VAL A   1       5.914  -2.260  22.026  0.00  0.00    -0.320 NA
ATOM     13  H1  VAL A   1       5.698  -1.761  21.163  0.00  0.00    +0.119 HD
ATOM     14  H2  VAL A   1       5.290  -1.846  22.724  0.00  0.00    +0.119 HD
ENDBRANCH  11  12
BRANCH  11  15
ATOM     15  CB  VAL A   1       6.743  -4.599  21.724  0.00  0.00    +0.009 C 
ATOM     16  CG2 VAL A   1       7.525  -4.689  23.041  0.00  0.00    +0.009 C 
ATOM     17  CG1 VAL A   1       6.346  -6.014  21.285  0.00  0.00    +0.009 C 
ENDBRANCH  11  15
ENDBRANCH   7  11
ENDBRANCH   6   8
BRANCH   6  18
ATOM     18  CB  LEU A   2       5.069  -5.090  26.335  0.00  0.00    +0.034 C 
BRANCH  18  19
ATOM     19  CG  LEU A   2       4.089  -6.279  26.413  0.00  0.00    -0.015 C 
ATOM     20  CD2 LEU A   2       4.221  -7.214  25.211  0.00  0.00    +0.007 C 
ATOM     21  CD1 LEU A   2       2.652  -5.757  26.500  0.00  0.00    +0.007 C 
ENDBRANCH  18  19
ENDBRANCH   6  18
ENDBRANCH   2   6
ENDBRANCH   1   4
BRANCH   1  22
ATOM     22  C   GLN A   3       5.437   0.612  25.810  0.00  0.00    +0.234 C 
ATOM     23  N   ALA A   4       6.237   1.350  24.976  0.00  0.00    -0.303 N 
ATOM     24  H   ALA A   4       7.244   1.210  24.952  0.00  0.00    +0.149 HD
ATOM     25  O   GLN A   3       4.223   0.790  25.906  0.00  0.00    -0.274 OA
BRANCH  23  26
ATOM     26  CA  ALA A   4       5.706   2.361  24.071  0.00  0.00    +0.156 C 
ATOM     27  CB  ALA A   4       5.360   3.650  24.800  0.00  0.00    +0.038 C 
BRANCH  26  28
ATOM     28  C   ALA A   4       6.781   2.626  23.005  0.00  0.00    +0.234 C 
ATOM     29  O   ALA A   4       6.576   3.370  22.047  0.00  0.00    -0.274 OA
ATOM     30  N   VAL A   5       7.966   1.967  23.209  0.00  0.00    -0.302 N 
ATOM     31  H   VAL A   5       8.061   1.303  23.973  0.00  0.00    +0.150 HD
BRANCH  30  32
ATOM     32  CA  VAL A   5       9.119   2.081  22.312  0.00  0.00    +0.161 C 
BRANCH  32  33
ATOM     33  C   VAL A   5       8.997   0.857  21.375  0.00  0.00    +0.234 C 
ATOM     34  N   GLY A   6       7.982   0.913  20.455  0.00  0.00    -0.307 N 
ATOM     35  H   GLY A   6       7.335   1.699  20.434  0.00  0.00    +0.149 HD
ATOM     36  O   VAL A   5       9.780  -0.093  21.435  0.00  0.00    -0.274 OA
BRANCH  34  37
ATOM     37  CA  GLY A   6       7.789  -0.128  19.468  0.00  0.00    +0.175 C 
BRANCH  37  38
ATOM     38  C   GLY A   6       6.430   0.028  18.820  0.00  0.00    +0.242 C 
ATOM     39  O   GLY A   6       6.137  -0.456  17.729  0.00  0.00    -0.299 OA
ENDBRANCH  37  38
ENDBRANCH  34  37
ENDBRANCH  32  33
BRANCH  32  40
ATOM     40  CB  VAL A   5      10.458   2.074  23.094  0.00  0.00    +0.012 C 
ATOM     41  CG2 VAL A   5      11.026   3.483  23.303  0.00  0.00    +0.009 C 
ATOM     42  CG1 VAL A   5      10.321   1.403  24.468  0.00  0.00    +0.009 C 
ENDBRANCH  32  40
ENDBRANCH  30  32
ENDBRANCH  26  28
ENDBRANCH  23  26
ENDBRANCH   1  22
BRANCH   1  43
ATOM     43  CB  GLN A   3       7.681  -0.333  26.531  0.00  0.00    +0.041 C 
BRANCH  43  44
ATOM     44  CG  GLN A   3       8.431  -1.551  25.994  0.00  0.00    +0.098 C 
BRANCH  44  45
ATOM     45  CD  GLN A   3       8.655  -1.508  24.497  0.00  0.00    +0.211 C 
ATOM     46  NE2 GLN A   3       9.817  -2.048  24.038  0.00  0.00    -0.329 N 
ATOM     47 HE21 GLN A   3       9.978  -2.009  23.039  0.00  0.00    +0.145 HD
ATOM     48 HE22 GLN A   3      10.577  -2.345  24.632  0.00  0.00    +0.145 HD
ATOM     49  OE1 GLN A   3       7.814  -1.083  23.714  0.00  0.00    -0.276 OA
ENDBRANCH  44  45
ENDBRANCH  43  44
ENDBRANCH   1  43
TORSDOF 19
ENDMDL
MODEL 17
REMARK VINA RESULT:      -6.0      2.191      6.577
REMARK  Name = VLQAVG-mmff94.pdb
REMARK  26 active torsions:
REMARK  status: ('A' for Active; 'I' for Inactive)
REMARK    1  A    between atoms: _1  and  _2
REMARK    2  A    between atoms: _2  and  _3
REMARK    3  A    between atoms: _2  and  _5
REMARK    4  A    between atoms: _5  and  _6
REMARK    5  A    between atoms: _5  and  _7
REMARK    6  A    between atoms: _17  and  _18
REMARK    7  A    between atoms: _18  and  _19
REMARK    8  A    between atoms: _18  and  _21
REMARK    9  A    between atoms: _21  and  _22
REMARK   10  A    between atoms: _22  and  _23
REMARK   11  A    between atoms: _22  and  _24
REMARK   12  A    between atoms: _36  and  _37
REMARK   13  A    between atoms: _37  and  _38
REMARK   14  A    between atoms: _37  and  _40
REMARK   15  A    between atoms: _40  and  _41
REMARK   16  A    between atoms: _41  and  _42
REMARK   17  A    between atoms: _53  and  _54
REMARK   18  A    between atoms: _54  and  _55
REMARK   19  A    between atoms: _54  and  _57
REMARK   20  A    between atoms: _63  and  _64
REMARK   21  A    between atoms: _64  and  _65
REMARK   22  A    between atoms: _64  and  _67
REMARK   23  A    between atoms: _67  and  _68
REMARK   24  A    between atoms: _67  and  _69
REMARK   25  A    between atoms: _79  and  _80
REMARK   26  A    between atoms: _80  and  _81
REMARK                            x       y       z     vdW  Elec       q    Type
REMARK                         _______ _______ _______ _____ _____    ______ ____
ROOT
ATOM      1  CA  GLN A   3       7.932   1.942  22.694  0.00  0.00    +0.159 C 
ENDROOT
BRANCH   1   4
ATOM      2  C   LEU A   2       7.590   0.155  20.998  0.00  0.00    +0.234 C 
ATOM      3  O   LEU A   2       8.597   0.472  20.364  0.00  0.00    -0.274 OA
ATOM      4  N   GLN A   3       7.203   0.800  22.146  0.00  0.00    -0.302 N 
ATOM      5  H   GLN A   3       6.339   0.543  22.618  0.00  0.00    +0.150 HD
BRANCH   2   6
ATOM      6  CA  LEU A   2       6.689  -1.026  20.579  0.00  0.00    +0.159 C 
BRANCH   6   8
ATOM      7  C   VAL A   1       5.822  -2.952  21.886  0.00  0.00    +0.231 C 
ATOM      8  N   LEU A   2       6.188  -1.630  21.810  0.00  0.00    -0.303 N 
ATOM      9  H   LEU A   2       6.406  -1.128  22.667  0.00  0.00    +0.149 HD
ATOM     10  O   VAL A   1       5.758  -3.692  20.907  0.00  0.00    -0.274 OA
BRANCH   7  11
ATOM     11  CA  VAL A   1       5.435  -3.426  23.308  0.00  0.00    +0.140 C 
BRANCH  11  12
ATOM     12  N   VAL A   1       4.932  -2.248  24.051  0.00  0.00    -0.320 NA
ATOM     13  H1  VAL A   1       5.705  -1.598  24.190  0.00  0.00    +0.119 HD
ATOM     14  H2  VAL A   1       4.287  -1.752  23.430  0.00  0.00    +0.119 HD
ENDBRANCH  11  12
BRANCH  11  15
ATOM     15  CB  VAL A   1       4.371  -4.545  23.237  0.00  0.00    +0.009 C 
ATOM     16  CG2 VAL A   1       4.994  -5.922  23.504  0.00  0.00    +0.009 C 
ATOM     17  CG1 VAL A   1       3.231  -4.312  24.237  0.00  0.00    +0.009 C 
ENDBRANCH  11  15
ENDBRANCH   7  11
ENDBRANCH   6   8
BRANCH   6  18
ATOM     18  CB  LEU A   2       5.541  -0.513  19.697  0.00  0.00    +0.034 C 
BRANCH  18  19
ATOM     19  CG  LEU A   2       5.699   0.941  19.208  0.00  0.00    -0.015 C 
ATOM     20  CD2 LEU A   2       4.412   1.748  19.373  0.00  0.00    +0.007 C 
ATOM     21  CD1 LEU A   2       6.122   0.948  17.736  0.00  0.00    +0.007 C 
ENDBRANCH  18  19
ENDBRANCH   6  18
ENDBRANCH   2   6
ENDBRANCH   1   4
BRANCH   1  22
ATOM     22  C   GLN A   3       7.770   1.865  24.223  0.00  0.00    +0.234 C 
ATOM     23  N   ALA A   4       7.013   0.814  24.676  0.00  0.00    -0.303 N 
ATOM     24  H   ALA A   4       6.525   0.200  24.028  0.00  0.00    +0.149 HD
ATOM     25  O   GLN A   3       8.330   2.661  24.977  0.00  0.00    -0.274 OA
BRANCH  23  26
ATOM     26  CA  ALA A   4       6.870   0.502  26.091  0.00  0.00    +0.156 C 
ATOM     27  CB  ALA A   4       5.433   0.160  26.455  0.00  0.00    +0.038 C 
BRANCH  26  28
ATOM     28  C   ALA A   4       7.792  -0.691  26.389  0.00  0.00    +0.234 C 
ATOM     29  O   ALA A   4       8.891  -0.546  26.922  0.00  0.00    -0.274 OA
ATOM     30  N   VAL A   5       7.293  -1.911  26.010  0.00  0.00    -0.302 N 
ATOM     31  H   VAL A   5       6.413  -1.972  25.504  0.00  0.00    +0.150 HD
BRANCH  30  32
ATOM     32  CA  VAL A   5       8.011  -3.173  26.203  0.00  0.00    +0.161 C 
BRANCH  32  33
ATOM     33  C   VAL A   5       8.897  -3.305  24.943  0.00  0.00    +0.234 C 
ATOM     34  N   GLY A   6       8.819  -2.266  24.052  0.00  0.00    -0.307 N 
ATOM     35  H   GLY A   6       8.182  -1.488  24.207  0.00  0.00    +0.149 HD
ATOM     36  O   VAL A   5       9.644  -4.270  24.768  0.00  0.00    -0.274 OA
BRANCH  34  37
ATOM     37  CA  GLY A   6       9.643  -2.220  22.862  0.00  0.00    +0.175 C 
BRANCH  37  38
ATOM     38  C   GLY A   6      10.508  -0.978  22.888  0.00  0.00    +0.242 C 
ATOM     39  O   GLY A   6      10.526  -0.182  23.825  0.00  0.00    -0.299 OA
ENDBRANCH  37  38
ENDBRANCH  34  37
ENDBRANCH  32  33
BRANCH  32  40
ATOM     40  CB  VAL A   5       7.037  -4.371  26.348  0.00  0.00    +0.012 C 
ATOM     41  CG2 VAL A   5       7.637  -5.523  27.164  0.00  0.00    +0.009 C 
ATOM     42  CG1 VAL A   5       5.710  -3.961  27.002  0.00  0.00    +0.009 C 
ENDBRANCH  32  40
ENDBRANCH  30  32
ENDBRANCH  26  28
ENDBRANCH  23  26
ENDBRANCH   1  22
BRANCH   1  43
ATOM     43  CB  GLN A   3       7.360   3.257  22.140  0.00  0.00    +0.041 C 
BRANCH  43  44
ATOM     44  CG  GLN A   3       5.888   3.480  22.484  0.00  0.00    +0.098 C 
BRANCH  44  45
ATOM     45  CD  GLN A   3       5.622   4.808  23.161  0.00  0.00    +0.211 C 
ATOM     46  NE2 GLN A   3       6.429   5.132  24.208  0.00  0.00    -0.329 N 
ATOM     47 HE21 GLN A   3       6.246   6.012  24.674  0.00  0.00    +0.145 HD
ATOM     48 HE22 GLN A   3       7.087   4.496  24.633  0.00  0.00    +0.145 HD
ATOM     49  OE1 GLN A   3       4.779   5.600  22.757  0.00  0.00    -0.276 OA
ENDBRANCH  44  45
ENDBRANCH  43  44
ENDBRANCH   1  43
TORSDOF 19
ENDMDL
MODEL 18
REMARK VINA RESULT:      -6.0      2.028      4.400
REMARK  Name = VLQAVG-mmff94.pdb
REMARK  26 active torsions:
REMARK  status: ('A' for Active; 'I' for Inactive)
REMARK    1  A    between atoms: _1  and  _2
REMARK    2  A    between atoms: _2  and  _3
REMARK    3  A    between atoms: _2  and  _5
REMARK    4  A    between atoms: _5  and  _6
REMARK    5  A    between atoms: _5  and  _7
REMARK    6  A    between atoms: _17  and  _18
REMARK    7  A    between atoms: _18  and  _19
REMARK    8  A    between atoms: _18  and  _21
REMARK    9  A    between atoms: _21  and  _22
REMARK   10  A    between atoms: _22  and  _23
REMARK   11  A    between atoms: _22  and  _24
REMARK   12  A    between atoms: _36  and  _37
REMARK   13  A    between atoms: _37  and  _38
REMARK   14  A    between atoms: _37  and  _40
REMARK   15  A    between atoms: _40  and  _41
REMARK   16  A    between atoms: _41  and  _42
REMARK   17  A    between atoms: _53  and  _54
REMARK   18  A    between atoms: _54  and  _55
REMARK   19  A    between atoms: _54  and  _57
REMARK   20  A    between atoms: _63  and  _64
REMARK   21  A    between atoms: _64  and  _65
REMARK   22  A    between atoms: _64  and  _67
REMARK   23  A    between atoms: _67  and  _68
REMARK   24  A    between atoms: _67  and  _69
REMARK   25  A    between atoms: _79  and  _80
REMARK   26  A    between atoms: _80  and  _81
REMARK                            x       y       z     vdW  Elec       q    Type
REMARK                         _______ _______ _______ _____ _____    ______ ____
ROOT
ATOM      1  CA  GLN A   3       7.332  -3.118  22.728  0.00  0.00    +0.159 C 
ENDROOT
BRANCH   1   4
ATOM      2  C   LEU A   2       7.955  -1.011  21.562  0.00  0.00    +0.234 C 
ATOM      3  O   LEU A   2       9.139  -1.334  21.470  0.00  0.00    -0.274 OA
ATOM      4  N   GLN A   3       7.009  -1.820  22.140  0.00  0.00    -0.302 N 
ATOM      5  H   GLN A   3       6.048  -1.500  22.242  0.00  0.00    +0.150 HD
BRANCH   2   6
ATOM      6  CA  LEU A   2       7.418   0.321  20.999  0.00  0.00    +0.159 C 
BRANCH   6   8
ATOM      7  C   VAL A   1       7.837   1.785  22.963  0.00  0.00    +0.231 C 
ATOM      8  N   LEU A   2       8.141   1.389  21.683  0.00  0.00    -0.303 N 
ATOM      9  H   LEU A   2       9.056   1.615  21.301  0.00  0.00    +0.149 HD
ATOM     10  O   VAL A   1       6.858   1.372  23.582  0.00  0.00    -0.274 OA
BRANCH   7  11
ATOM     11  CA  VAL A   1       8.799   2.846  23.549  0.00  0.00    +0.140 C 
BRANCH  11  12
ATOM     12  N   VAL A   1       8.556   2.914  25.007  0.00  0.00    -0.320 NA
ATOM     13  H1  VAL A   1       8.481   1.963  25.369  0.00  0.00    +0.119 HD
ATOM     14  H2  VAL A   1       9.407   3.286  25.439  0.00  0.00    +0.119 HD
ENDBRANCH  11  12
BRANCH  11  15
ATOM     15  CB  VAL A   1      10.268   2.478  23.238  0.00  0.00    +0.009 C 
ATOM     16  CG2 VAL A   1      11.196   3.684  23.433  0.00  0.00    +0.009 C 
ATOM     17  CG1 VAL A   1      10.763   1.322  24.117  0.00  0.00    +0.009 C 
ENDBRANCH  11  15
ENDBRANCH   7  11
ENDBRANCH   6   8
BRANCH   6  18
ATOM     18  CB  LEU A   2       7.644   0.371  19.481  0.00  0.00    +0.034 C 
BRANCH  18  19
ATOM     19  CG  LEU A   2       6.358   0.306  18.632  0.00  0.00    -0.015 C 
ATOM     20  CD2 LEU A   2       5.343   1.372  19.041  0.00  0.00    +0.007 C 
ATOM     21  CD1 LEU A   2       5.724  -1.082  18.761  0.00  0.00    +0.007 C 
ENDBRANCH  18  19
ENDBRANCH   6  18
ENDBRANCH   2   6
ENDBRANCH   1   4
BRANCH   1  22
ATOM     22  C   GLN A   3       6.035  -3.946  22.688  0.00  0.00    +0.234 C 
ATOM     23  N   ALA A   4       5.645  -4.477  23.890  0.00  0.00    -0.303 N 
ATOM     24  H   ALA A   4       6.235  -4.399  24.716  0.00  0.00    +0.149 HD
ATOM     25  O   GLN A   3       5.375  -4.068  21.656  0.00  0.00    -0.274 OA
BRANCH  23  26
ATOM     26  CA  ALA A   4       4.375  -5.167  24.069  0.00  0.00    +0.156 C 
ATOM     27  CB  ALA A   4       4.535  -6.678  24.002  0.00  0.00    +0.038 C 
BRANCH  26  28
ATOM     28  C   ALA A   4       3.823  -4.753  25.443  0.00  0.00    +0.234 C 
ATOM     29  O   ALA A   4       2.614  -4.662  25.656  0.00  0.00    -0.274 OA
ATOM     30  N   VAL A   5       4.778  -4.493  26.391  0.00  0.00    -0.302 N 
ATOM     31  H   VAL A   5       5.764  -4.508  26.146  0.00  0.00    +0.150 HD
BRANCH  30  32
ATOM     32  CA  VAL A   5       4.465  -4.083  27.763  0.00  0.00    +0.161 C 
BRANCH  32  33
ATOM     33  C   VAL A   5       4.665  -2.550  27.759  0.00  0.00    +0.234 C 
ATOM     34  N   GLY A   6       5.788  -2.101  27.113  0.00  0.00    -0.307 N 
ATOM     35  H   GLY A   6       6.456  -2.751  26.706  0.00  0.00    +0.149 HD
ATOM     36  O   VAL A   5       3.852  -1.784  28.279  0.00  0.00    -0.274 OA
BRANCH  34  37
ATOM     37  CA  GLY A   6       6.070  -0.688  26.970  0.00  0.00    +0.175 C 
BRANCH  37  38
ATOM     38  C   GLY A   6       7.556  -0.446  27.124  0.00  0.00    +0.242 C 
ATOM     39  O   GLY A   6       8.280  -0.055  26.211  0.00  0.00    -0.299 OA
ENDBRANCH  37  38
ENDBRANCH  34  37
ENDBRANCH  32  33
BRANCH  32  40
ATOM     40  CB  VAL A   5       5.388  -4.781  28.795  0.00  0.00    +0.012 C 
ATOM     41  CG2 VAL A   5       4.779  -4.816  30.202  0.00  0.00    +0.009 C 
ATOM     42  CG1 VAL A   5       5.730  -6.220  28.384  0.00  0.00    +0.009 C 
ENDBRANCH  32  40
ENDBRANCH  30  32
ENDBRANCH  26  28
ENDBRANCH  23  26
ENDBRANCH   1  22
BRANCH   1  43
ATOM     43  CB  GLN A   3       7.834  -2.941  24.170  0.00  0.00    +0.041 C 
BRANCH  43  44
ATOM     44  CG  GLN A   3       9.137  -3.683  24.464  0.00  0.00    +0.098 C 
BRANCH  44  45
ATOM     45  CD  GLN A   3       8.941  -4.941  25.283  0.00  0.00    +0.211 C 
ATOM     46  NE2 GLN A   3      10.063  -5.646  25.597  0.00  0.00    -0.329 N 
ATOM     47 HE21 GLN A   3       9.936  -6.496  26.132  0.00  0.00    +0.145 HD
ATOM     48 HE22 GLN A   3      10.976  -5.456  25.213  0.00  0.00    +0.145 HD
ATOM     49  OE1 GLN A   3       7.848  -5.287  25.715  0.00  0.00    -0.276 OA
ENDBRANCH  44  45
ENDBRANCH  43  44
ENDBRANCH   1  43
TORSDOF 19
ENDMDL
MODEL 19
REMARK VINA RESULT:      -5.9      2.261      5.423
REMARK  Name = VLQAVG-mmff94.pdb
REMARK  26 active torsions:
REMARK  status: ('A' for Active; 'I' for Inactive)
REMARK    1  A    between atoms: _1  and  _2
REMARK    2  A    between atoms: _2  and  _3
REMARK    3  A    between atoms: _2  and  _5
REMARK    4  A    between atoms: _5  and  _6
REMARK    5  A    between atoms: _5  and  _7
REMARK    6  A    between atoms: _17  and  _18
REMARK    7  A    between atoms: _18  and  _19
REMARK    8  A    between atoms: _18  and  _21
REMARK    9  A    between atoms: _21  and  _22
REMARK   10  A    between atoms: _22  and  _23
REMARK   11  A    between atoms: _22  and  _24
REMARK   12  A    between atoms: _36  and  _37
REMARK   13  A    between atoms: _37  and  _38
REMARK   14  A    between atoms: _37  and  _40
REMARK   15  A    between atoms: _40  and  _41
REMARK   16  A    between atoms: _41  and  _42
REMARK   17  A    between atoms: _53  and  _54
REMARK   18  A    between atoms: _54  and  _55
REMARK   19  A    between atoms: _54  and  _57
REMARK   20  A    between atoms: _63  and  _64
REMARK   21  A    between atoms: _64  and  _65
REMARK   22  A    between atoms: _64  and  _67
REMARK   23  A    between atoms: _67  and  _68
REMARK   24  A    between atoms: _67  and  _69
REMARK   25  A    between atoms: _79  and  _80
REMARK   26  A    between atoms: _80  and  _81
REMARK                            x       y       z     vdW  Elec       q    Type
REMARK                         _______ _______ _______ _____ _____    ______ ____
ROOT
ATOM      1  CA  GLN A   3       8.403  -3.978  26.243  0.00  0.00    +0.159 C 
ENDROOT
BRANCH   1   4
ATOM      2  C   LEU A   2       7.425  -1.702  26.469  0.00  0.00    +0.234 C 
ATOM      3  O   LEU A   2       8.496  -1.146  26.227  0.00  0.00    -0.274 OA
ATOM      4  N   GLN A   3       7.285  -3.067  26.481  0.00  0.00    -0.302 N 
ATOM      5  H   GLN A   3       6.396  -3.493  26.732  0.00  0.00    +0.150 HD
BRANCH   2   6
ATOM      6  CA  LEU A   2       6.129  -0.911  26.744  0.00  0.00    +0.159 C 
BRANCH   6   8
ATOM      7  C   VAL A   1       5.337   1.237  25.780  0.00  0.00    +0.231 C 
ATOM      8  N   LEU A   2       5.961   0.021  25.635  0.00  0.00    -0.303 N 
ATOM      9  H   LEU A   2       6.580  -0.124  24.841  0.00  0.00    +0.149 HD
ATOM     10  O   VAL A   1       4.758   1.578  26.809  0.00  0.00    -0.274 OA
BRANCH   7  11
ATOM     11  CA  VAL A   1       5.371   2.128  24.515  0.00  0.00    +0.140 C 
BRANCH  11  12
ATOM     12  N   VAL A   1       3.971   2.383  24.109  0.00  0.00    -0.320 NA
ATOM     13  H1  VAL A   1       3.929   3.285  23.635  0.00  0.00    +0.119 HD
ATOM     14  H2  VAL A   1       3.737   1.700  23.383  0.00  0.00    +0.119 HD
ENDBRANCH  11  12
BRANCH  11  15
ATOM     15  CB  VAL A   1       6.126   3.446  24.799  0.00  0.00    +0.009 C 
ATOM     16  CG2 VAL A   1       7.567   3.175  25.252  0.00  0.00    +0.009 C 
ATOM     17  CG1 VAL A   1       6.157   4.362  23.569  0.00  0.00    +0.009 C 
ENDBRANCH  11  15
ENDBRANCH   7  11
ENDBRANCH   6   8
BRANCH   6  18
ATOM     18  CB  LEU A   2       4.943  -1.882  26.847  0.00  0.00    +0.034 C 
BRANCH  18  19
ATOM     19  CG  LEU A   2       4.170  -1.821  28.181  0.00  0.00    -0.015 C 
ATOM     20  CD2 LEU A   2       4.050  -3.195  28.840  0.00  0.00    +0.007 C 
ATOM     21  CD1 LEU A   2       2.772  -1.244  27.941  0.00  0.00    +0.007 C 
ENDBRANCH  18  19
ENDBRANCH   6  18
ENDBRANCH   2   6
ENDBRANCH   1   4
BRANCH   1  22
ATOM     22  C   GLN A   3       8.590  -4.044  24.716  0.00  0.00    +0.234 C 
ATOM     23  N   ALA A   4       7.478  -4.427  24.010  0.00  0.00    -0.303 N 
ATOM     24  H   ALA A   4       6.633  -4.734  24.485  0.00  0.00    +0.149 HD
ATOM     25  O   GLN A   3       9.647  -3.720  24.177  0.00  0.00    -0.274 OA
BRANCH  23  26
ATOM     26  CA  ALA A   4       7.429  -4.410  22.555  0.00  0.00    +0.156 C 
ATOM     27  CB  ALA A   4       6.627  -5.577  21.999  0.00  0.00    +0.038 C 
BRANCH  26  28
ATOM     28  C   ALA A   4       6.784  -3.078  22.138  0.00  0.00    +0.234 C 
ATOM     29  O   ALA A   4       5.667  -3.029  21.625  0.00  0.00    -0.274 OA
ATOM     30  N   VAL A   5       7.552  -1.968  22.380  0.00  0.00    -0.302 N 
ATOM     31  H   VAL A   5       8.499  -2.065  22.736  0.00  0.00    +0.150 HD
BRANCH  30  32
ATOM     32  CA  VAL A   5       7.125  -0.604  22.059  0.00  0.00    +0.161 C 
BRANCH  32  33
ATOM     33  C   VAL A   5       7.181  -0.539  20.515  0.00  0.00    +0.234 C 
ATOM     34  N   GLY A   6       5.967  -0.535  19.877  0.00  0.00    -0.307 N 
ATOM     35  H   GLY A   6       5.098  -0.613  20.401  0.00  0.00    +0.149 HD
ATOM     36  O   VAL A   5       8.247  -0.468  19.903  0.00  0.00    -0.274 OA
BRANCH  34  37
ATOM     37  CA  GLY A   6       5.862  -0.408  18.438  0.00  0.00    +0.175 C 
BRANCH  37  38
ATOM     38  C   GLY A   6       5.787   1.055  18.060  0.00  0.00    +0.242 C 
ATOM     39  O   GLY A   6       6.408   1.547  17.119  0.00  0.00    -0.299 OA
ENDBRANCH  37  38
ENDBRANCH  34  37
ENDBRANCH  32  33
BRANCH  32  40
ATOM     40  CB  VAL A   5       8.049   0.456  22.712  0.00  0.00    +0.012 C 
ATOM     41  CG2 VAL A   5       9.461  -0.079  22.980  0.00  0.00    +0.009 C 
ATOM     42  CG1 VAL A   5       8.171   1.724  21.854  0.00  0.00    +0.009 C 
ENDBRANCH  32  40
ENDBRANCH  30  32
ENDBRANCH  26  28
ENDBRANCH  23  26
ENDBRANCH   1  22
BRANCH   1  43
ATOM     43  CB  GLN A   3       8.094  -5.366  26.826  0.00  0.00    +0.041 C 
BRANCH  43  44
ATOM     44  CG  GLN A   3       6.757  -5.441  27.563  0.00  0.00    +0.098 C 
BRANCH  44  45
ATOM     45  CD  GLN A   3       5.649  -6.061  26.739  0.00  0.00    +0.211 C 
ATOM     46  NE2 GLN A   3       5.065  -7.182  27.246  0.00  0.00    -0.329 N 
ATOM     47 HE21 GLN A   3       4.333  -7.609  26.691  0.00  0.00    +0.145 HD
ATOM     48 HE22 GLN A   3       5.409  -7.685  28.049  0.00  0.00    +0.145 HD
ATOM     49  OE1 GLN A   3       5.232  -5.556  25.704  0.00  0.00    -0.276 OA
ENDBRANCH  44  45
ENDBRANCH  43  44
ENDBRANCH   1  43
TORSDOF 19
ENDMDL
MODEL 20
REMARK VINA RESULT:      -5.9      2.119      5.403
REMARK  Name = VLQAVG-mmff94.pdb
REMARK  26 active torsions:
REMARK  status: ('A' for Active; 'I' for Inactive)
REMARK    1  A    between atoms: _1  and  _2
REMARK    2  A    between atoms: _2  and  _3
REMARK    3  A    between atoms: _2  and  _5
REMARK    4  A    between atoms: _5  and  _6
REMARK    5  A    between atoms: _5  and  _7
REMARK    6  A    between atoms: _17  and  _18
REMARK    7  A    between atoms: _18  and  _19
REMARK    8  A    between atoms: _18  and  _21
REMARK    9  A    between atoms: _21  and  _22
REMARK   10  A    between atoms: _22  and  _23
REMARK   11  A    between atoms: _22  and  _24
REMARK   12  A    between atoms: _36  and  _37
REMARK   13  A    between atoms: _37  and  _38
REMARK   14  A    between atoms: _37  and  _40
REMARK   15  A    between atoms: _40  and  _41
REMARK   16  A    between atoms: _41  and  _42
REMARK   17  A    between atoms: _53  and  _54
REMARK   18  A    between atoms: _54  and  _55
REMARK   19  A    between atoms: _54  and  _57
REMARK   20  A    between atoms: _63  and  _64
REMARK   21  A    between atoms: _64  and  _65
REMARK   22  A    between atoms: _64  and  _67
REMARK   23  A    between atoms: _67  and  _68
REMARK   24  A    between atoms: _67  and  _69
REMARK   25  A    between atoms: _79  and  _80
REMARK   26  A    between atoms: _80  and  _81
REMARK                            x       y       z     vdW  Elec       q    Type
REMARK                         _______ _______ _______ _____ _____    ______ ____
ROOT
ATOM      1  CA  GLN A   3       9.290  -0.565  24.076  0.00  0.00    +0.159 C 
ENDROOT
BRANCH   1   4
ATOM      2  C   LEU A   2       8.237  -0.234  21.847  0.00  0.00    +0.234 C 
ATOM      3  O   LEU A   2       8.749  -1.252  21.380  0.00  0.00    -0.274 OA
ATOM      4  N   GLN A   3       8.430   0.164  23.146  0.00  0.00    -0.302 N 
ATOM      5  H   GLN A   3       8.030   1.037  23.484  0.00  0.00    +0.150 HD
BRANCH   2   6
ATOM      6  CA  LEU A   2       7.297   0.669  21.021  0.00  0.00    +0.159 C 
BRANCH   6   8
ATOM      7  C   VAL A   1       6.670   2.899  21.917  0.00  0.00    +0.231 C 
ATOM      8  N   LEU A   2       7.608   2.047  21.387  0.00  0.00    -0.303 N 
ATOM      9  H   LEU A   2       8.594   2.254  21.520  0.00  0.00    +0.149 HD
ATOM     10  O   VAL A   1       5.476   2.620  22.000  0.00  0.00    -0.274 OA
BRANCH   7  11
ATOM     11  CA  VAL A   1       7.230   4.275  22.351  0.00  0.00    +0.140 C 
BRANCH  11  12
ATOM     12  N   VAL A   1       6.250   5.307  21.942  0.00  0.00    -0.320 NA
ATOM     13  H1  VAL A   1       6.716   6.214  21.937  0.00  0.00    +0.119 HD
ATOM     14  H2  VAL A   1       6.019   5.132  20.960  0.00  0.00    +0.119 HD
ENDBRANCH  11  12
BRANCH  11  15
ATOM     15  CB  VAL A   1       7.477   4.304  23.876  0.00  0.00    +0.009 C 
ATOM     16  CG2 VAL A   1       8.497   5.386  24.254  0.00  0.00    +0.009 C 
ATOM     17  CG1 VAL A   1       6.180   4.550  24.658  0.00  0.00    +0.009 C 
ENDBRANCH  11  15
ENDBRANCH   7  11
ENDBRANCH   6   8
BRANCH   6  18
ATOM     18  CB  LEU A   2       7.525   0.420  19.522  0.00  0.00    +0.034 C 
BRANCH  18  19
ATOM     19  CG  LEU A   2       6.266   0.002  18.736  0.00  0.00    -0.015 C 
ATOM     20  CD2 LEU A   2       5.191   1.088  18.749  0.00  0.00    +0.007 C 
ATOM     21  CD1 LEU A   2       5.694  -1.291  19.327  0.00  0.00    +0.007 C 
ENDBRANCH  18  19
ENDBRANCH   6  18
ENDBRANCH   2   6
ENDBRANCH   1   4
BRANCH   1  22
ATOM     22  C   GLN A   3       8.410  -0.921  25.288  0.00  0.00    +0.234 C 
ATOM     23  N   ALA A   4       7.095  -0.543  25.184  0.00  0.00    -0.303 N 
ATOM     24  H   ALA A   4       6.768   0.014  24.398  0.00  0.00    +0.149 HD
ATOM     25  O   GLN A   3       8.853  -1.547  26.251  0.00  0.00    -0.274 OA
BRANCH  23  26
ATOM     26  CA  ALA A   4       6.090  -0.920  26.169  0.00  0.00    +0.156 C 
ATOM     27  CB  ALA A   4       5.059   0.179  26.377  0.00  0.00    +0.038 C 
BRANCH  26  28
ATOM     28  C   ALA A   4       5.408  -2.198  25.656  0.00  0.00    +0.234 C 
ATOM     29  O   ALA A   4       4.223  -2.214  25.324  0.00  0.00    -0.274 OA
ATOM     30  N   VAL A   5       6.220  -3.302  25.607  0.00  0.00    -0.302 N 
ATOM     31  H   VAL A   5       7.171  -3.258  25.963  0.00  0.00    +0.150 HD
BRANCH  30  32
ATOM     32  CA  VAL A   5       5.768  -4.618  25.149  0.00  0.00    +0.161 C 
BRANCH  32  33
ATOM     33  C   VAL A   5       6.078  -5.562  26.333  0.00  0.00    +0.234 C 
ATOM     34  N   GLY A   6       4.997  -5.949  27.083  0.00  0.00    -0.307 N 
ATOM     35  H   GLY A   6       4.065  -5.592  26.883  0.00  0.00    +0.149 HD
ATOM     36  O   VAL A   5       7.220  -5.962  26.568  0.00  0.00    -0.274 OA
BRANCH  34  37
ATOM     37  CA  GLY A   6       5.126  -6.884  28.180  0.00  0.00    +0.175 C 
BRANCH  37  38
ATOM     38  C   GLY A   6       5.171  -6.129  29.491  0.00  0.00    +0.242 C 
ATOM     39  O   GLY A   6       6.125  -5.439  29.846  0.00  0.00    -0.299 OA
ENDBRANCH  37  38
ENDBRANCH  34  37
ENDBRANCH  32  33
BRANCH  32  40
ATOM     40  CB  VAL A   5       6.501  -5.059  23.855  0.00  0.00    +0.012 C 
ATOM     41  CG2 VAL A   5       5.560  -5.154  22.648  0.00  0.00    +0.009 C 
ATOM     42  CG1 VAL A   5       7.653  -4.112  23.493  0.00  0.00    +0.009 C 
ENDBRANCH  32  40
ENDBRANCH  30  32
ENDBRANCH  26  28
ENDBRANCH  23  26
ENDBRANCH   1  22
BRANCH   1  43
ATOM     43  CB  GLN A   3      10.485   0.305  24.493  0.00  0.00    +0.041 C 
BRANCH  43  44
ATOM     44  CG  GLN A   3      10.183   1.804  24.501  0.00  0.00    +0.098 C 
BRANCH  44  45
ATOM     45  CD  GLN A   3      10.693   2.527  23.272  0.00  0.00    +0.211 C 
ATOM     46  NE2 GLN A   3      11.507   3.597  23.487  0.00  0.00    -0.329 N 
ATOM     47 HE21 GLN A   3      11.838   4.093  22.669  0.00  0.00    +0.145 HD
ATOM     48 HE22 GLN A   3      11.676   4.006  24.393  0.00  0.00    +0.145 HD
ATOM     49  OE1 GLN A   3      10.459   2.142  22.133  0.00  0.00    -0.276 OA
ENDBRANCH  44  45
ENDBRANCH  43  44
ENDBRANCH   1  43
TORSDOF 19
ENDMDL
