MODEL 1
REMARK VINA RESULT:      -6.0      0.000      0.000
REMARK  Name = ATLQAENV-mmff94.pdb
REMARK  36 active torsions:
REMARK  status: ('A' for Active; 'I' for Inactive)
REMARK    1  A    between atoms: _1  and  _2
REMARK    2  A    between atoms: _2  and  _3
REMARK    3  A    between atoms: _2  and  _5
REMARK    4  A    between atoms: _11  and  _12
REMARK    5  A    between atoms: _12  and  _13
REMARK    6  A    between atoms: _12  and  _15
REMARK    7  A    between atoms: _15  and  _16
REMARK    8  A    between atoms: _15  and  _17
REMARK    9  A    between atoms: _25  and  _26
REMARK   10  A    between atoms: _26  and  _27
REMARK   11  A    between atoms: _26  and  _29
REMARK   12  A    between atoms: _29  and  _30
REMARK   13  A    between atoms: _30  and  _31
REMARK   14  A    between atoms: _30  and  _32
REMARK   15  A    between atoms: _44  and  _45
REMARK   16  A    between atoms: _45  and  _46
REMARK   17  A    between atoms: _45  and  _48
REMARK   18  A    between atoms: _48  and  _49
REMARK   19  A    between atoms: _49  and  _50
REMARK   20  A    between atoms: _61  and  _62
REMARK   21  A    between atoms: _62  and  _63
REMARK   22  A    between atoms: _62  and  _65
REMARK   23  A    between atoms: _71  and  _72
REMARK   24  A    between atoms: _72  and  _73
REMARK   25  A    between atoms: _72  and  _75
REMARK   26  A    between atoms: _75  and  _76
REMARK   27  A    between atoms: _76  and  _77
REMARK   28  A    between atoms: _86  and  _87
REMARK   29  A    between atoms: _87  and  _88
REMARK   30  A    between atoms: _87  and  _90
REMARK   31  A    between atoms: _90  and  _91
REMARK   32  A    between atoms: _100  and  _101
REMARK   33  A    between atoms: _101  and  _102
REMARK   34  A    between atoms: _101  and  _104
REMARK   35  A    between atoms: _104  and  _105
REMARK   36  A    between atoms: _104  and  _106
REMARK                            x       y       z     vdW  Elec       q    Type
REMARK                         _______ _______ _______ _____ _____    ______ ____
ROOT
ATOM      1  C   GLN A   4       7.681   0.383  20.318  0.00  0.00    +0.234 C 
ATOM      2  O   GLN A   4       8.305  -0.140  19.393  0.00  0.00    -0.274 OA
ATOM      3  N   ALA A   5       6.342   0.176  20.521  0.00  0.00    -0.303 N 
ATOM      4  H   ALA A   5       5.851   0.604  21.303  0.00  0.00    +0.149 HD
ENDROOT
BRANCH   3   5
ATOM      5  CA  ALA A   5       5.526  -0.641  19.629  0.00  0.00    +0.156 C 
ATOM      6  CB  ALA A   5       5.977  -0.512  18.180  0.00  0.00    +0.038 C 
BRANCH   5   7
ATOM      7  C   ALA A   5       5.646  -2.105  20.091  0.00  0.00    +0.234 C 
ATOM      8  N   GLU A   6       5.788  -2.261  21.444  0.00  0.00    -0.302 N 
ATOM      9  H   GLU A   6       5.955  -1.454  22.037  0.00  0.00    +0.150 HD
ATOM     10  O   ALA A   5       5.575  -3.041  19.295  0.00  0.00    -0.274 OA
BRANCH   8  11
ATOM     11  CA  GLU A   6       5.984  -3.562  22.087  0.00  0.00    +0.159 C 
BRANCH  11  12
ATOM     12  C   GLU A   6       5.015  -3.567  23.285  0.00  0.00    +0.234 C 
ATOM     13  O   GLU A   6       5.004  -2.664  24.126  0.00  0.00    -0.274 OA
ATOM     14  N   ASN A   7       4.163  -4.641  23.363  0.00  0.00    -0.302 N 
ATOM     15  H   ASN A   7       4.294  -5.421  22.719  0.00  0.00    +0.150 HD
BRANCH  14  16
ATOM     16  CA  ASN A   7       3.335  -4.904  24.538  0.00  0.00    +0.168 C 
BRANCH  16  17
ATOM     17  C   ASN A   7       4.144  -5.842  25.450  0.00  0.00    +0.234 C 
ATOM     18  N   VAL A   8       3.963  -5.642  26.797  0.00  0.00    -0.304 N 
ATOM     19  H   VAL A   8       3.334  -4.920  27.133  0.00  0.00    +0.149 HD
ATOM     20  O   ASN A   7       4.856  -6.735  24.995  0.00  0.00    -0.274 OA
BRANCH  18  21
ATOM     21  CA  VAL A   8       4.620  -6.464  27.809  0.00  0.00    +0.138 C 
BRANCH  21  22
ATOM     22  CB  VAL A   8       5.765  -5.722  28.530  0.00  0.00    +0.010 C 
ATOM     23  CG2 VAL A   8       6.941  -5.436  27.589  0.00  0.00    +0.009 C 
ATOM     24  CG1 VAL A   8       6.281  -6.516  29.737  0.00  0.00    +0.009 C 
ENDBRANCH  21  22
BRANCH  21  25
ATOM     25  C   VAL A   8       3.519  -6.859  28.790  0.00  0.00    +0.245 C 
ATOM     26  O   VAL A   8       2.798  -6.054  29.380  0.00  0.00    -0.299 OA
ENDBRANCH  21  25
ENDBRANCH  18  21
ENDBRANCH  16  17
BRANCH  16  27
ATOM     27  CB  ASN A   7       2.021  -5.607  24.202  0.00  0.00    +0.127 C 
BRANCH  27  28
ATOM     28  CG  ASN A   7       2.031  -6.678  23.134  0.00  0.00    +0.213 C 
ATOM     29  OD1 ASN A   7       1.833  -6.404  21.951  0.00  0.00    -0.276 OA
ATOM     30  ND2 ASN A   7       2.369  -7.948  23.474  0.00  0.00    -0.329 N 
ATOM     31 HD21 ASN A   7       2.277  -8.607  22.711  0.00  0.00    +0.145 HD
ATOM     32 HD22 ASN A   7       2.004  -8.322  24.354  0.00  0.00    +0.145 HD
ENDBRANCH  27  28
ENDBRANCH  16  27
ENDBRANCH  14  16
ENDBRANCH  11  12
BRANCH  11  33
ATOM     33  CB  GLU A   6       7.434  -3.714  22.553  0.00  0.00    +0.037 C 
BRANCH  33  34
ATOM     34  CG  GLU A   6       7.593  -4.607  23.781  0.00  0.00    +0.054 C 
BRANCH  34  35
ATOM     35  CD  GLU A   6       9.006  -4.609  24.372  0.00  0.00    +0.042 C 
ATOM     36  OE2 GLU A   6       9.301  -5.675  24.984  0.00  0.00    -0.550 OA
ATOM     37  OE1 GLU A   6       9.687  -3.563  24.200  0.00  0.00    -0.550 OA
ENDBRANCH  34  35
ENDBRANCH  33  34
ENDBRANCH  11  33
ENDBRANCH   8  11
ENDBRANCH   5   7
ENDBRANCH   3   5
BRANCH   1  38
ATOM     38  CA  GLN A   4       8.358   1.351  21.305  0.00  0.00    +0.159 C 
BRANCH  38  40
ATOM     39  C   LEU A   3       6.933   2.958  22.564  0.00  0.00    +0.234 C 
ATOM     40  N   GLN A   4       7.343   1.675  22.308  0.00  0.00    -0.302 N 
ATOM     41  H   GLN A   4       7.004   0.897  22.869  0.00  0.00    +0.150 HD
ATOM     42  O   LEU A   3       7.351   3.933  21.940  0.00  0.00    -0.274 OA
BRANCH  39  43
ATOM     43  CA  LEU A   3       5.870   3.094  23.674  0.00  0.00    +0.159 C 
BRANCH  43  46
ATOM     44  C   THR A   2       5.243   1.342  25.329  0.00  0.00    +0.236 C 
ATOM     45  O   THR A   2       4.034   1.529  25.187  0.00  0.00    -0.274 OA
ATOM     46  N   LEU A   3       6.196   2.090  24.683  0.00  0.00    -0.302 N 
ATOM     47  H   LEU A   3       7.175   1.821  24.736  0.00  0.00    +0.150 HD
BRANCH  44  48
ATOM     48  CA  THR A   2       5.788   0.226  26.229  0.00  0.00    +0.187 C 
BRANCH  48  50
ATOM     49  C   ALA A   1       4.118  -1.151  27.454  0.00  0.00    +0.230 C 
ATOM     50  N   THR A   2       4.734  -0.791  26.281  0.00  0.00    -0.301 N 
ATOM     51  H   THR A   2       4.549  -1.300  25.424  0.00  0.00    +0.150 HD
ATOM     52  O   ALA A   1       4.304  -0.580  28.527  0.00  0.00    -0.274 OA
BRANCH  49  53
ATOM     53  CA  ALA A   1       3.125  -2.323  27.311  0.00  0.00    +0.135 C 
ATOM     54  CB  ALA A   1       1.728  -1.779  27.048  0.00  0.00    +0.033 C 
BRANCH  53  55
ATOM     55  N   ALA A   1       3.134  -3.135  28.545  0.00  0.00    -0.320 NA
ATOM     56  H1  ALA A   1       3.921  -2.819  29.115  0.00  0.00    +0.119 HD
ATOM     57  H2  ALA A   1       2.317  -2.845  29.093  0.00  0.00    +0.119 HD
ENDBRANCH  53  55
ENDBRANCH  49  53
ENDBRANCH  48  50
BRANCH  48  58
ATOM     58  CB  THR A   2       7.092  -0.337  25.613  0.00  0.00    +0.141 C 
ATOM     59  CG2 THR A   2       7.567  -1.609  26.312  0.00  0.00    +0.040 C 
BRANCH  58  60
ATOM     60  OG1 THR A   2       6.899  -0.640  24.225  0.00  0.00    -0.390 OA
ATOM     61  HG1 THR A   2       7.734  -0.994  23.876  0.00  0.00    +0.210 HD
ENDBRANCH  58  60
ENDBRANCH  48  58
ENDBRANCH  44  48
ENDBRANCH  43  46
BRANCH  43  62
ATOM     62  CB  LEU A   3       5.907   4.517  24.251  0.00  0.00    +0.034 C 
BRANCH  62  63
ATOM     63  CG  LEU A   3       4.529   5.187  24.420  0.00  0.00    -0.015 C 
ATOM     64  CD2 LEU A   3       3.542   4.604  23.405  0.00  0.00    +0.007 C 
ATOM     65  CD1 LEU A   3       3.970   5.008  25.833  0.00  0.00    +0.007 C 
ENDBRANCH  62  63
ENDBRANCH  43  62
ENDBRANCH  39  43
ENDBRANCH  38  40
BRANCH  38  66
ATOM     66  CB  GLN A   4       9.582   0.704  21.967  0.00  0.00    +0.041 C 
BRANCH  66  67
ATOM     67  CG  GLN A   4      10.433   1.686  22.769  0.00  0.00    +0.098 C 
BRANCH  67  68
ATOM     68  CD  GLN A   4      10.095   1.582  24.238  0.00  0.00    +0.211 C 
ATOM     69  OE1 GLN A   4       9.234   2.264  24.779  0.00  0.00    -0.276 OA
ATOM     70  NE2 GLN A   4      10.765   0.612  24.922  0.00  0.00    -0.329 N 
ATOM     71 HE21 GLN A   4      11.658   0.266  24.594  0.00  0.00    +0.145 HD
ATOM     72 HE22 GLN A   4      10.618   0.602  25.923  0.00  0.00    +0.145 HD
ENDBRANCH  67  68
ENDBRANCH  66  67
ENDBRANCH  38  66
ENDBRANCH   1  38
TORSDOF 29
ENDMDL
MODEL 2
REMARK VINA RESULT:      -5.9      2.068      8.225
REMARK  Name = ATLQAENV-mmff94.pdb
REMARK  36 active torsions:
REMARK  status: ('A' for Active; 'I' for Inactive)
REMARK    1  A    between atoms: _1  and  _2
REMARK    2  A    between atoms: _2  and  _3
REMARK    3  A    between atoms: _2  and  _5
REMARK    4  A    between atoms: _11  and  _12
REMARK    5  A    between atoms: _12  and  _13
REMARK    6  A    between atoms: _12  and  _15
REMARK    7  A    between atoms: _15  and  _16
REMARK    8  A    between atoms: _15  and  _17
REMARK    9  A    between atoms: _25  and  _26
REMARK   10  A    between atoms: _26  and  _27
REMARK   11  A    between atoms: _26  and  _29
REMARK   12  A    between atoms: _29  and  _30
REMARK   13  A    between atoms: _30  and  _31
REMARK   14  A    between atoms: _30  and  _32
REMARK   15  A    between atoms: _44  and  _45
REMARK   16  A    between atoms: _45  and  _46
REMARK   17  A    between atoms: _45  and  _48
REMARK   18  A    between atoms: _48  and  _49
REMARK   19  A    between atoms: _49  and  _50
REMARK   20  A    between atoms: _61  and  _62
REMARK   21  A    between atoms: _62  and  _63
REMARK   22  A    between atoms: _62  and  _65
REMARK   23  A    between atoms: _71  and  _72
REMARK   24  A    between atoms: _72  and  _73
REMARK   25  A    between atoms: _72  and  _75
REMARK   26  A    between atoms: _75  and  _76
REMARK   27  A    between atoms: _76  and  _77
REMARK   28  A    between atoms: _86  and  _87
REMARK   29  A    between atoms: _87  and  _88
REMARK   30  A    between atoms: _87  and  _90
REMARK   31  A    between atoms: _90  and  _91
REMARK   32  A    between atoms: _100  and  _101
REMARK   33  A    between atoms: _101  and  _102
REMARK   34  A    between atoms: _101  and  _104
REMARK   35  A    between atoms: _104  and  _105
REMARK   36  A    between atoms: _104  and  _106
REMARK                            x       y       z     vdW  Elec       q    Type
REMARK                         _______ _______ _______ _____ _____    ______ ____
ROOT
ATOM      1  C   GLN A   4       3.833   1.423  26.645  0.00  0.00    +0.234 C 
ATOM      2  O   GLN A   4       2.645   1.096  26.645  0.00  0.00    -0.274 OA
ATOM      3  N   ALA A   5       4.254   2.697  26.369  0.00  0.00    -0.303 N 
ATOM      4  H   ALA A   5       5.240   2.947  26.393  0.00  0.00    +0.149 HD
ENDROOT
BRANCH   3   5
ATOM      5  CA  ALA A   5       3.335   3.768  26.001  0.00  0.00    +0.156 C 
ATOM      6  CB  ALA A   5       3.359   4.903  27.017  0.00  0.00    +0.038 C 
BRANCH   5   7
ATOM      7  C   ALA A   5       3.751   4.291  24.615  0.00  0.00    +0.234 C 
ATOM      8  N   GLU A   6       4.971   3.839  24.183  0.00  0.00    -0.302 N 
ATOM      9  H   GLU A   6       5.583   3.336  24.817  0.00  0.00    +0.150 HD
ATOM     10  O   ALA A   5       3.015   5.020  23.951  0.00  0.00    -0.274 OA
BRANCH   8  11
ATOM     11  CA  GLU A   6       5.586   4.264  22.924  0.00  0.00    +0.159 C 
BRANCH  11  12
ATOM     12  C   GLU A   6       5.441   3.056  21.979  0.00  0.00    +0.234 C 
ATOM     13  O   GLU A   6       4.344   2.683  21.552  0.00  0.00    -0.274 OA
ATOM     14  N   ASN A   7       6.607   2.415  21.642  0.00  0.00    -0.302 N 
ATOM     15  H   ASN A   7       7.469   2.679  22.117  0.00  0.00    +0.150 HD
BRANCH  14  16
ATOM     16  CA  ASN A   7       6.625   1.138  20.932  0.00  0.00    +0.168 C 
BRANCH  16  17
ATOM     17  C   ASN A   7       8.052   0.578  21.061  0.00  0.00    +0.234 C 
ATOM     18  N   VAL A   8       8.680   0.853  22.251  0.00  0.00    -0.304 N 
ATOM     19  H   VAL A   8       8.208   1.389  22.973  0.00  0.00    +0.149 HD
ATOM     20  O   ASN A   7       8.563  -0.108  20.177  0.00  0.00    -0.274 OA
BRANCH  18  21
ATOM     21  CA  VAL A   8      10.021   0.369  22.564  0.00  0.00    +0.138 C 
BRANCH  21  22
ATOM     22  CB  VAL A   8      10.659   1.109  23.758  0.00  0.00    +0.010 C 
ATOM     23  CG2 VAL A   8      10.381   0.396  25.087  0.00  0.00    +0.009 C 
ATOM     24  CG1 VAL A   8      10.156   2.555  23.860  0.00  0.00    +0.009 C 
ENDBRANCH  21  22
BRANCH  21  25
ATOM     25  C   VAL A   8       9.857  -1.119  22.865  0.00  0.00    +0.245 C 
ATOM     26  O   VAL A   8      10.647  -1.988  22.497  0.00  0.00    -0.299 OA
ENDBRANCH  21  25
ENDBRANCH  18  21
ENDBRANCH  16  17
BRANCH  16  27
ATOM     27  CB  ASN A   7       6.315   1.273  19.442  0.00  0.00    +0.127 C 
BRANCH  27  28
ATOM     28  CG  ASN A   7       5.801   0.059  18.701  0.00  0.00    +0.213 C 
ATOM     29  OD1 ASN A   7       5.797   0.013  17.471  0.00  0.00    -0.276 OA
ATOM     30  ND2 ASN A   7       5.436  -1.042  19.408  0.00  0.00    -0.329 N 
ATOM     31 HD21 ASN A   7       5.038  -1.774  18.834  0.00  0.00    +0.145 HD
ATOM     32 HD22 ASN A   7       4.912  -0.903  20.275  0.00  0.00    +0.145 HD
ENDBRANCH  27  28
ENDBRANCH  16  27
ENDBRANCH  14  16
ENDBRANCH  11  12
BRANCH  11  33
ATOM     33  CB  GLU A   6       7.059   4.617  23.143  0.00  0.00    +0.037 C 
BRANCH  33  34
ATOM     34  CG  GLU A   6       7.289   5.617  24.273  0.00  0.00    +0.054 C 
BRANCH  34  35
ATOM     35  CD  GLU A   6       7.842   4.992  25.556  0.00  0.00    +0.042 C 
ATOM     36  OE2 GLU A   6       8.951   5.475  25.923  0.00  0.00    -0.550 OA
ATOM     37  OE1 GLU A   6       7.152   4.074  26.076  0.00  0.00    -0.550 OA
ENDBRANCH  34  35
ENDBRANCH  33  34
ENDBRANCH  11  33
ENDBRANCH   8  11
ENDBRANCH   5   7
ENDBRANCH   3   5
BRANCH   1  38
ATOM     38  CA  GLN A   4       4.952   0.401  26.921  0.00  0.00    +0.159 C 
BRANCH  38  40
ATOM     39  C   LEU A   3       4.321  -1.936  27.504  0.00  0.00    +0.234 C 
ATOM     40  N   GLN A   4       4.386  -0.909  26.597  0.00  0.00    -0.302 N 
ATOM     41  H   GLN A   4       4.104  -1.049  25.630  0.00  0.00    +0.150 HD
ATOM     42  O   LEU A   3       4.691  -1.824  28.672  0.00  0.00    -0.274 OA
BRANCH  39  43
ATOM     43  CA  LEU A   3       3.709  -3.246  26.965  0.00  0.00    +0.159 C 
BRANCH  43  46
ATOM     44  C   THR A   2       4.141  -4.278  24.740  0.00  0.00    +0.236 C 
ATOM     45  O   THR A   2       2.954  -4.539  24.543  0.00  0.00    -0.274 OA
ATOM     46  N   LEU A   3       4.598  -3.710  25.903  0.00  0.00    -0.302 N 
ATOM     47  H   LEU A   3       5.565  -3.403  25.973  0.00  0.00    +0.150 HD
BRANCH  44  48
ATOM     48  CA  THR A   2       5.215  -4.547  23.678  0.00  0.00    +0.187 C 
BRANCH  48  50
ATOM     49  C   ALA A   1       7.688  -4.665  23.924  0.00  0.00    +0.230 C 
ATOM     50  N   THR A   2       6.429  -4.896  24.422  0.00  0.00    -0.301 N 
ATOM     51  H   THR A   2       6.302  -5.418  25.282  0.00  0.00    +0.150 HD
ATOM     52  O   ALA A   1       7.908  -4.047  22.884  0.00  0.00    -0.274 OA
BRANCH  49  53
ATOM     53  CA  ALA A   1       8.825  -5.216  24.807  0.00  0.00    +0.135 C 
ATOM     54  CB  ALA A   1       8.358  -5.288  26.254  0.00  0.00    +0.033 C 
BRANCH  53  55
ATOM     55  N   ALA A   1      10.010  -4.341  24.695  0.00  0.00    -0.320 NA
ATOM     56  H1  ALA A   1       9.700  -3.382  24.865  0.00  0.00    +0.119 HD
ATOM     57  H2  ALA A   1      10.602  -4.542  25.509  0.00  0.00    +0.119 HD
ENDBRANCH  53  55
ENDBRANCH  49  53
ENDBRANCH  48  50
BRANCH  48  58
ATOM     58  CB  THR A   2       4.753  -5.709  22.765  0.00  0.00    +0.141 C 
ATOM     59  CG2 THR A   2       5.753  -6.013  21.653  0.00  0.00    +0.040 C 
BRANCH  58  60
ATOM     60  OG1 THR A   2       4.568  -6.906  23.535  0.00  0.00    -0.390 OA
ATOM     61  HG1 THR A   2       3.718  -7.299  23.277  0.00  0.00    +0.210 HD
ENDBRANCH  58  60
ENDBRANCH  48  58
ENDBRANCH  44  48
ENDBRANCH  43  46
BRANCH  43  62
ATOM     62  CB  LEU A   3       3.597  -4.270  28.104  0.00  0.00    +0.034 C 
BRANCH  62  63
ATOM     63  CG  LEU A   3       4.809  -5.211  28.254  0.00  0.00    -0.015 C 
ATOM     64  CD2 LEU A   3       5.275  -5.226  29.712  0.00  0.00    +0.007 C 
ATOM     65  CD1 LEU A   3       4.487  -6.639  27.809  0.00  0.00    +0.007 C 
ENDBRANCH  62  63
ENDBRANCH  43  62
ENDBRANCH  39  43
ENDBRANCH  38  40
BRANCH  38  66
ATOM     66  CB  GLN A   4       6.187   0.681  26.054  0.00  0.00    +0.041 C 
BRANCH  66  67
ATOM     67  CG  GLN A   4       5.988   0.341  24.579  0.00  0.00    +0.098 C 
BRANCH  67  68
ATOM     68  CD  GLN A   4       6.460  -1.068  24.306  0.00  0.00    +0.211 C 
ATOM     69  OE1 GLN A   4       6.985  -1.778  25.155  0.00  0.00    -0.276 OA
ATOM     70  NE2 GLN A   4       6.190  -1.539  23.056  0.00  0.00    -0.329 N 
ATOM     71 HE21 GLN A   4       6.051  -0.905  22.279  0.00  0.00    +0.145 HD
ATOM     72 HE22 GLN A   4       6.589  -2.443  22.833  0.00  0.00    +0.145 HD
ENDBRANCH  67  68
ENDBRANCH  66  67
ENDBRANCH  38  66
ENDBRANCH   1  38
TORSDOF 29
ENDMDL
MODEL 3
REMARK VINA RESULT:      -5.8      2.285      7.767
REMARK  Name = ATLQAENV-mmff94.pdb
REMARK  36 active torsions:
REMARK  status: ('A' for Active; 'I' for Inactive)
REMARK    1  A    between atoms: _1  and  _2
REMARK    2  A    between atoms: _2  and  _3
REMARK    3  A    between atoms: _2  and  _5
REMARK    4  A    between atoms: _11  and  _12
REMARK    5  A    between atoms: _12  and  _13
REMARK    6  A    between atoms: _12  and  _15
REMARK    7  A    between atoms: _15  and  _16
REMARK    8  A    between atoms: _15  and  _17
REMARK    9  A    between atoms: _25  and  _26
REMARK   10  A    between atoms: _26  and  _27
REMARK   11  A    between atoms: _26  and  _29
REMARK   12  A    between atoms: _29  and  _30
REMARK   13  A    between atoms: _30  and  _31
REMARK   14  A    between atoms: _30  and  _32
REMARK   15  A    between atoms: _44  and  _45
REMARK   16  A    between atoms: _45  and  _46
REMARK   17  A    between atoms: _45  and  _48
REMARK   18  A    between atoms: _48  and  _49
REMARK   19  A    between atoms: _49  and  _50
REMARK   20  A    between atoms: _61  and  _62
REMARK   21  A    between atoms: _62  and  _63
REMARK   22  A    between atoms: _62  and  _65
REMARK   23  A    between atoms: _71  and  _72
REMARK   24  A    between atoms: _72  and  _73
REMARK   25  A    between atoms: _72  and  _75
REMARK   26  A    between atoms: _75  and  _76
REMARK   27  A    between atoms: _76  and  _77
REMARK   28  A    between atoms: _86  and  _87
REMARK   29  A    between atoms: _87  and  _88
REMARK   30  A    between atoms: _87  and  _90
REMARK   31  A    between atoms: _90  and  _91
REMARK   32  A    between atoms: _100  and  _101
REMARK   33  A    between atoms: _101  and  _102
REMARK   34  A    between atoms: _101  and  _104
REMARK   35  A    between atoms: _104  and  _105
REMARK   36  A    between atoms: _104  and  _106
REMARK                            x       y       z     vdW  Elec       q    Type
REMARK                         _______ _______ _______ _____ _____    ______ ____
ROOT
ATOM      1  C   GLN A   4       3.130   1.387  26.748  0.00  0.00    +0.234 C 
ATOM      2  O   GLN A   4       1.928   1.228  26.529  0.00  0.00    -0.274 OA
ATOM      3  N   ALA A   5       3.831   2.473  26.292  0.00  0.00    -0.303 N 
ATOM      4  H   ALA A   5       4.820   2.592  26.502  0.00  0.00    +0.149 HD
ENDROOT
BRANCH   3   5
ATOM      5  CA  ALA A   5       3.226   3.510  25.464  0.00  0.00    +0.156 C 
ATOM      6  CB  ALA A   5       3.596   4.906  25.953  0.00  0.00    +0.038 C 
BRANCH   5   7
ATOM      7  C   ALA A   5       3.721   3.309  24.021  0.00  0.00    +0.234 C 
ATOM      8  N   GLU A   6       5.046   3.601  23.831  0.00  0.00    -0.302 N 
ATOM      9  H   GLU A   6       5.578   4.058  24.565  0.00  0.00    +0.150 HD
ATOM     10  O   ALA A   5       2.979   2.880  23.138  0.00  0.00    -0.274 OA
BRANCH   8  11
ATOM     11  CA  GLU A   6       5.703   3.541  22.524  0.00  0.00    +0.159 C 
BRANCH  11  12
ATOM     12  C   GLU A   6       6.185   2.085  22.384  0.00  0.00    +0.234 C 
ATOM     13  O   GLU A   6       6.304   1.335  23.358  0.00  0.00    -0.274 OA
ATOM     14  N   ASN A   7       6.480   1.670  21.109  0.00  0.00    -0.302 N 
ATOM     15  H   ASN A   7       6.489   2.359  20.357  0.00  0.00    +0.150 HD
BRANCH  14  16
ATOM     16  CA  ASN A   7       7.143   0.398  20.829  0.00  0.00    +0.168 C 
BRANCH  16  17
ATOM     17  C   ASN A   7       8.480   0.418  21.592  0.00  0.00    +0.234 C 
ATOM     18  N   VAL A   8       8.621  -0.562  22.543  0.00  0.00    -0.304 N 
ATOM     19  H   VAL A   8       7.879  -1.235  22.706  0.00  0.00    +0.149 HD
ATOM     20  O   ASN A   7       9.368   1.225  21.323  0.00  0.00    -0.274 OA
BRANCH  18  21
ATOM     21  CA  VAL A   8       9.837  -0.720  23.335  0.00  0.00    +0.138 C 
BRANCH  21  22
ATOM     22  CB  VAL A   8       9.898   0.250  24.535  0.00  0.00    +0.010 C 
ATOM     23  CG2 VAL A   8      11.304   0.828  24.731  0.00  0.00    +0.009 C 
ATOM     24  CG1 VAL A   8       9.461  -0.434  25.836  0.00  0.00    +0.009 C 
ENDBRANCH  21  22
BRANCH  21  25
ATOM     25  C   VAL A   8       9.833  -2.173  23.804  0.00  0.00    +0.245 C 
ATOM     26  O   VAL A   8       9.257  -3.086  23.214  0.00  0.00    -0.299 OA
ENDBRANCH  21  25
ENDBRANCH  18  21
ENDBRANCH  16  17
BRANCH  16  27
ATOM     27  CB  ASN A   7       7.459   0.198  19.348  0.00  0.00    +0.127 C 
BRANCH  27  28
ATOM     28  CG  ASN A   7       6.307  -0.000  18.388  0.00  0.00    +0.213 C 
ATOM     29  OD1 ASN A   7       6.065   0.819  17.502  0.00  0.00    -0.276 OA
ATOM     30  ND2 ASN A   7       5.594  -1.154  18.439  0.00  0.00    -0.329 N 
ATOM     31 HD21 ASN A   7       4.801  -1.165  17.810  0.00  0.00    +0.145 HD
ATOM     32 HD22 ASN A   7       5.362  -1.534  19.360  0.00  0.00    +0.145 HD
ENDBRANCH  27  28
ENDBRANCH  16  27
ENDBRANCH  14  16
ENDBRANCH  11  12
BRANCH  11  33
ATOM     33  CB  GLU A   6       6.882   4.517  22.475  0.00  0.00    +0.037 C 
BRANCH  33  34
ATOM     34  CG  GLU A   6       7.354   4.978  23.851  0.00  0.00    +0.054 C 
BRANCH  34  35
ATOM     35  CD  GLU A   6       8.500   4.145  24.430  0.00  0.00    +0.042 C 
ATOM     36  OE2 GLU A   6       8.122   3.237  25.222  0.00  0.00    -0.550 OA
ATOM     37  OE1 GLU A   6       9.665   4.469  24.072  0.00  0.00    -0.550 OA
ENDBRANCH  34  35
ENDBRANCH  33  34
ENDBRANCH  11  33
ENDBRANCH   8  11
ENDBRANCH   5   7
ENDBRANCH   3   5
BRANCH   1  38
ATOM     38  CA  GLN A   4       3.954   0.346  27.527  0.00  0.00    +0.159 C 
BRANCH  38  40
ATOM     39  C   LEU A   3       2.968  -1.914  27.178  0.00  0.00    +0.234 C 
ATOM     40  N   GLN A   4       3.816  -0.909  26.786  0.00  0.00    -0.302 N 
ATOM     41  H   GLN A   4       4.443  -1.034  25.996  0.00  0.00    +0.150 HD
ATOM     42  O   LEU A   3       2.224  -1.822  28.154  0.00  0.00    -0.274 OA
BRANCH  39  43
ATOM     43  CA  LEU A   3       2.981  -3.166  26.277  0.00  0.00    +0.159 C 
BRANCH  43  46
ATOM     44  C   THR A   2       4.550  -3.849  24.468  0.00  0.00    +0.236 C 
ATOM     45  O   THR A   2       3.700  -4.511  23.872  0.00  0.00    -0.274 OA
ATOM     46  N   LEU A   3       4.305  -3.217  25.661  0.00  0.00    -0.302 N 
ATOM     47  H   LEU A   3       4.998  -2.584  26.054  0.00  0.00    +0.150 HD
BRANCH  44  48
ATOM     48  CA  THR A   2       5.963  -3.651  23.902  0.00  0.00    +0.187 C 
BRANCH  48  50
ATOM     49  C   ALA A   1       7.381  -3.898  25.931  0.00  0.00    +0.230 C 
ATOM     50  N   THR A   2       6.851  -4.422  24.777  0.00  0.00    -0.301 N 
ATOM     51  H   THR A   2       7.147  -5.330  24.440  0.00  0.00    +0.150 HD
ATOM     52  O   ALA A   1       7.070  -2.800  26.389  0.00  0.00    -0.274 OA
BRANCH  49  53
ATOM     53  CA  ALA A   1       8.386  -4.828  26.641  0.00  0.00    +0.135 C 
ATOM     54  CB  ALA A   1       9.254  -5.527  25.604  0.00  0.00    +0.033 C 
BRANCH  53  55
ATOM     55  N   ALA A   1       7.655  -5.824  27.450  0.00  0.00    -0.320 NA
ATOM     56  H1  ALA A   1       8.134  -5.901  28.350  0.00  0.00    +0.119 HD
ATOM     57  H2  ALA A   1       6.756  -5.397  27.701  0.00  0.00    +0.119 HD
ENDBRANCH  53  55
ENDBRANCH  49  53
ENDBRANCH  48  50
BRANCH  48  58
ATOM     58  CB  THR A   2       6.008  -4.171  22.445  0.00  0.00    +0.141 C 
ATOM     59  CG2 THR A   2       5.948  -3.042  21.419  0.00  0.00    +0.040 C 
BRANCH  58  60
ATOM     60  OG1 THR A   2       7.214  -4.913  22.217  0.00  0.00    -0.390 OA
ATOM     61  HG1 THR A   2       7.071  -5.821  22.533  0.00  0.00    +0.210 HD
ENDBRANCH  58  60
ENDBRANCH  48  58
ENDBRANCH  44  48
ENDBRANCH  43  46
BRANCH  43  62
ATOM     62  CB  LEU A   3       2.698  -4.414  27.126  0.00  0.00    +0.034 C 
BRANCH  62  63
ATOM     63  CG  LEU A   3       3.941  -5.057  27.773  0.00  0.00    -0.015 C 
ATOM     64  CD2 LEU A   3       3.867  -4.909  29.296  0.00  0.00    +0.007 C 
ATOM     65  CD1 LEU A   3       4.078  -6.537  27.413  0.00  0.00    +0.007 C 
ENDBRANCH  62  63
ENDBRANCH  43  62
ENDBRANCH  39  43
ENDBRANCH  38  40
BRANCH  38  66
ATOM     66  CB  GLN A   4       5.429   0.758  27.615  0.00  0.00    +0.041 C 
BRANCH  66  67
ATOM     67  CG  GLN A   4       5.918   0.976  29.045  0.00  0.00    +0.098 C 
BRANCH  67  68
ATOM     68  CD  GLN A   4       6.967   2.063  29.073  0.00  0.00    +0.211 C 
ATOM     69  OE1 GLN A   4       7.492   2.465  30.104  0.00  0.00    -0.276 OA
ATOM     70  NE2 GLN A   4       7.358   2.525  27.852  0.00  0.00    -0.329 N 
ATOM     71 HE21 GLN A   4       6.752   2.444  27.046  0.00  0.00    +0.145 HD
ATOM     72 HE22 GLN A   4       7.986   3.319  27.865  0.00  0.00    +0.145 HD
ENDBRANCH  67  68
ENDBRANCH  66  67
ENDBRANCH  38  66
ENDBRANCH   1  38
TORSDOF 29
ENDMDL
MODEL 4
REMARK VINA RESULT:      -5.8      2.263      9.061
REMARK  Name = ATLQAENV-mmff94.pdb
REMARK  36 active torsions:
REMARK  status: ('A' for Active; 'I' for Inactive)
REMARK    1  A    between atoms: _1  and  _2
REMARK    2  A    between atoms: _2  and  _3
REMARK    3  A    between atoms: _2  and  _5
REMARK    4  A    between atoms: _11  and  _12
REMARK    5  A    between atoms: _12  and  _13
REMARK    6  A    between atoms: _12  and  _15
REMARK    7  A    between atoms: _15  and  _16
REMARK    8  A    between atoms: _15  and  _17
REMARK    9  A    between atoms: _25  and  _26
REMARK   10  A    between atoms: _26  and  _27
REMARK   11  A    between atoms: _26  and  _29
REMARK   12  A    between atoms: _29  and  _30
REMARK   13  A    between atoms: _30  and  _31
REMARK   14  A    between atoms: _30  and  _32
REMARK   15  A    between atoms: _44  and  _45
REMARK   16  A    between atoms: _45  and  _46
REMARK   17  A    between atoms: _45  and  _48
REMARK   18  A    between atoms: _48  and  _49
REMARK   19  A    between atoms: _49  and  _50
REMARK   20  A    between atoms: _61  and  _62
REMARK   21  A    between atoms: _62  and  _63
REMARK   22  A    between atoms: _62  and  _65
REMARK   23  A    between atoms: _71  and  _72
REMARK   24  A    between atoms: _72  and  _73
REMARK   25  A    between atoms: _72  and  _75
REMARK   26  A    between atoms: _75  and  _76
REMARK   27  A    between atoms: _76  and  _77
REMARK   28  A    between atoms: _86  and  _87
REMARK   29  A    between atoms: _87  and  _88
REMARK   30  A    between atoms: _87  and  _90
REMARK   31  A    between atoms: _90  and  _91
REMARK   32  A    between atoms: _100  and  _101
REMARK   33  A    between atoms: _101  and  _102
REMARK   34  A    between atoms: _101  and  _104
REMARK   35  A    between atoms: _104  and  _105
REMARK   36  A    between atoms: _104  and  _106
REMARK                            x       y       z     vdW  Elec       q    Type
REMARK                         _______ _______ _______ _____ _____    ______ ____
ROOT
ATOM      1  C   GLN A   4       4.065  -2.005  27.287  0.00  0.00    +0.234 C 
ATOM      2  O   GLN A   4       3.804  -1.767  28.468  0.00  0.00    -0.274 OA
ATOM      3  N   ALA A   5       4.877  -1.202  26.529  0.00  0.00    -0.303 N 
ATOM      4  H   ALA A   5       5.093  -1.429  25.561  0.00  0.00    +0.149 HD
ENDROOT
BRANCH   3   5
ATOM      5  CA  ALA A   5       5.464   0.032  27.040  0.00  0.00    +0.156 C 
ATOM      6  CB  ALA A   5       6.866   0.257  26.488  0.00  0.00    +0.038 C 
BRANCH   5   7
ATOM      7  C   ALA A   5       4.542   1.195  26.632  0.00  0.00    +0.234 C 
ATOM      8  N   GLU A   6       5.193   2.380  26.407  0.00  0.00    -0.302 N 
ATOM      9  H   GLU A   6       6.173   2.479  26.653  0.00  0.00    +0.150 HD
ATOM     10  O   ALA A   5       3.330   1.039  26.487  0.00  0.00    -0.274 OA
BRANCH   8  11
ATOM     11  CA  GLU A   6       4.501   3.626  26.074  0.00  0.00    +0.159 C 
BRANCH  11  12
ATOM     12  C   GLU A   6       4.862   3.904  24.603  0.00  0.00    +0.234 C 
ATOM     13  O   GLU A   6       4.081   4.464  23.828  0.00  0.00    -0.274 OA
ATOM     14  N   ASN A   7       6.107   3.488  24.202  0.00  0.00    -0.302 N 
ATOM     15  H   ASN A   7       6.665   2.919  24.838  0.00  0.00    +0.150 HD
BRANCH  14  16
ATOM     16  CA  ASN A   7       6.522   3.485  22.800  0.00  0.00    +0.168 C 
BRANCH  16  17
ATOM     17  C   ASN A   7       6.400   2.034  22.304  0.00  0.00    +0.234 C 
ATOM     18  N   VAL A   8       6.369   1.885  20.939  0.00  0.00    -0.304 N 
ATOM     19  H   VAL A   8       6.425   2.695  20.330  0.00  0.00    +0.149 HD
ATOM     20  O   ASN A   7       6.384   1.081  23.082  0.00  0.00    -0.274 OA
BRANCH  18  21
ATOM     21  CA  VAL A   8       6.295   0.579  20.291  0.00  0.00    +0.138 C 
BRANCH  21  22
ATOM     22  CB  VAL A   8       5.202   0.514  19.203  0.00  0.00    +0.010 C 
ATOM     23  CG2 VAL A   8       5.802   0.387  17.798  0.00  0.00    +0.009 C 
ATOM     24  CG1 VAL A   8       4.293   1.748  19.241  0.00  0.00    +0.009 C 
ENDBRANCH  21  22
BRANCH  21  25
ATOM     25  C   VAL A   8       7.680   0.343  19.692  0.00  0.00    +0.245 C 
ATOM     26  O   VAL A   8       8.668   0.016  20.348  0.00  0.00    -0.299 OA
ENDBRANCH  21  25
ENDBRANCH  18  21
ENDBRANCH  16  17
BRANCH  16  27
ATOM     27  CB  ASN A   7       7.972   3.921  22.601  0.00  0.00    +0.127 C 
BRANCH  27  28
ATOM     28  CG  ASN A   7       9.071   2.945  22.959  0.00  0.00    +0.213 C 
ATOM     29  OD1 ASN A   7       9.240   2.569  24.119  0.00  0.00    -0.276 OA
ATOM     30  ND2 ASN A   7       9.816   2.394  21.967  0.00  0.00    -0.329 N 
ATOM     31 HD21 ASN A   7      10.572   1.812  22.307  0.00  0.00    +0.145 HD
ATOM     32 HD22 ASN A   7      10.111   2.999  21.197  0.00  0.00    +0.145 HD
ENDBRANCH  27  28
ENDBRANCH  16  27
ENDBRANCH  14  16
ENDBRANCH  11  12
BRANCH  11  33
ATOM     33  CB  GLU A   6       4.981   4.761  26.981  0.00  0.00    +0.037 C 
BRANCH  33  34
ATOM     34  CG  GLU A   6       6.419   4.593  27.465  0.00  0.00    +0.054 C 
BRANCH  34  35
ATOM     35  CD  GLU A   6       6.540   4.200  28.940  0.00  0.00    +0.042 C 
ATOM     36  OE2 GLU A   6       7.407   4.863  29.576  0.00  0.00    -0.550 OA
ATOM     37  OE1 GLU A   6       5.790   3.266  29.335  0.00  0.00    -0.550 OA
ENDBRANCH  34  35
ENDBRANCH  33  34
ENDBRANCH  11  33
ENDBRANCH   8  11
ENDBRANCH   5   7
ENDBRANCH   3   5
BRANCH   1  38
ATOM     38  CA  GLN A   4       3.459  -3.215  26.554  0.00  0.00    +0.159 C 
BRANCH  38  40
ATOM     39  C   LEU A   3       3.977  -4.108  24.287  0.00  0.00    +0.234 C 
ATOM     40  N   GLN A   4       4.383  -3.523  25.460  0.00  0.00    -0.302 N 
ATOM     41  H   GLN A   4       5.367  -3.348  25.643  0.00  0.00    +0.150 HD
ATOM     42  O   LEU A   3       2.802  -4.377  24.043  0.00  0.00    -0.274 OA
BRANCH  39  43
ATOM     43  CA  LEU A   3       5.104  -4.371  23.267  0.00  0.00    +0.159 C 
BRANCH  43  46
ATOM     44  C   THR A   2       6.876  -2.622  23.236  0.00  0.00    +0.236 C 
ATOM     45  O   THR A   2       6.488  -2.136  22.173  0.00  0.00    -0.274 OA
ATOM     46  N   LEU A   3       6.303  -3.734  23.803  0.00  0.00    -0.302 N 
ATOM     47  H   LEU A   3       6.577  -4.026  24.738  0.00  0.00    +0.150 HD
BRANCH  44  48
ATOM     48  CA  THR A   2       8.028  -2.001  24.036  0.00  0.00    +0.187 C 
BRANCH  48  50
ATOM     49  C   ALA A   1       8.281  -3.520  25.990  0.00  0.00    +0.230 C 
ATOM     50  N   THR A   2       8.671  -3.117  24.737  0.00  0.00    -0.301 N 
ATOM     51  H   THR A   2       9.494  -3.516  24.299  0.00  0.00    +0.150 HD
ATOM     52  O   ALA A   1       7.299  -3.070  26.577  0.00  0.00    -0.274 OA
BRANCH  49  53
ATOM     53  CA  ALA A   1       9.164  -4.629  26.598  0.00  0.00    +0.135 C 
ATOM     54  CB  ALA A   1      10.030  -5.245  25.509  0.00  0.00    +0.033 C 
BRANCH  53  55
ATOM     55  N   ALA A   1       8.308  -5.662  27.216  0.00  0.00    -0.320 NA
ATOM     56  H1  ALA A   1       8.476  -5.636  28.224  0.00  0.00    +0.119 HD
ATOM     57  H2  ALA A   1       7.341  -5.332  27.132  0.00  0.00    +0.119 HD
ENDBRANCH  53  55
ENDBRANCH  49  53
ENDBRANCH  48  50
BRANCH  48  58
ATOM     58  CB  THR A   2       9.007  -1.300  23.063  0.00  0.00    +0.141 C 
ATOM     59  CG2 THR A   2      10.249  -0.763  23.770  0.00  0.00    +0.040 C 
BRANCH  58  60
ATOM     60  OG1 THR A   2       9.437  -2.212  22.044  0.00  0.00    -0.390 OA
ATOM     61  HG1 THR A   2       9.491  -1.721  21.206  0.00  0.00    +0.210 HD
ENDBRANCH  58  60
ENDBRANCH  48  58
ENDBRANCH  44  48
ENDBRANCH  43  46
BRANCH  43  62
ATOM     62  CB  LEU A   3       5.293  -5.886  23.088  0.00  0.00    +0.034 C 
BRANCH  62  63
ATOM     63  CG  LEU A   3       6.291  -6.291  21.985  0.00  0.00    -0.015 C 
ATOM     64  CD2 LEU A   3       6.062  -5.432  20.739  0.00  0.00    +0.007 C 
ATOM     65  CD1 LEU A   3       7.744  -6.149  22.441  0.00  0.00    +0.007 C 
ENDBRANCH  62  63
ENDBRANCH  43  62
ENDBRANCH  39  43
ENDBRANCH  38  40
BRANCH  38  66
ATOM     66  CB  GLN A   4       3.317  -4.420  27.492  0.00  0.00    +0.041 C 
BRANCH  66  67
ATOM     67  CG  GLN A   4       4.643  -4.896  28.081  0.00  0.00    +0.098 C 
BRANCH  67  68
ATOM     68  CD  GLN A   4       4.956  -6.290  27.592  0.00  0.00    +0.211 C 
ATOM     69  OE1 GLN A   4       5.424  -6.525  26.484  0.00  0.00    -0.276 OA
ATOM     70  NE2 GLN A   4       4.757  -7.285  28.502  0.00  0.00    -0.329 N 
ATOM     71 HE21 GLN A   4       4.110  -7.165  29.271  0.00  0.00    +0.145 HD
ATOM     72 HE22 GLN A   4       4.869  -8.228  28.151  0.00  0.00    +0.145 HD
ENDBRANCH  67  68
ENDBRANCH  66  67
ENDBRANCH  38  66
ENDBRANCH   1  38
TORSDOF 29
ENDMDL
MODEL 5
REMARK VINA RESULT:      -5.8      1.496      2.159
REMARK  Name = ATLQAENV-mmff94.pdb
REMARK  36 active torsions:
REMARK  status: ('A' for Active; 'I' for Inactive)
REMARK    1  A    between atoms: _1  and  _2
REMARK    2  A    between atoms: _2  and  _3
REMARK    3  A    between atoms: _2  and  _5
REMARK    4  A    between atoms: _11  and  _12
REMARK    5  A    between atoms: _12  and  _13
REMARK    6  A    between atoms: _12  and  _15
REMARK    7  A    between atoms: _15  and  _16
REMARK    8  A    between atoms: _15  and  _17
REMARK    9  A    between atoms: _25  and  _26
REMARK   10  A    between atoms: _26  and  _27
REMARK   11  A    between atoms: _26  and  _29
REMARK   12  A    between atoms: _29  and  _30
REMARK   13  A    between atoms: _30  and  _31
REMARK   14  A    between atoms: _30  and  _32
REMARK   15  A    between atoms: _44  and  _45
REMARK   16  A    between atoms: _45  and  _46
REMARK   17  A    between atoms: _45  and  _48
REMARK   18  A    between atoms: _48  and  _49
REMARK   19  A    between atoms: _49  and  _50
REMARK   20  A    between atoms: _61  and  _62
REMARK   21  A    between atoms: _62  and  _63
REMARK   22  A    between atoms: _62  and  _65
REMARK   23  A    between atoms: _71  and  _72
REMARK   24  A    between atoms: _72  and  _73
REMARK   25  A    between atoms: _72  and  _75
REMARK   26  A    between atoms: _75  and  _76
REMARK   27  A    between atoms: _76  and  _77
REMARK   28  A    between atoms: _86  and  _87
REMARK   29  A    between atoms: _87  and  _88
REMARK   30  A    between atoms: _87  and  _90
REMARK   31  A    between atoms: _90  and  _91
REMARK   32  A    between atoms: _100  and  _101
REMARK   33  A    between atoms: _101  and  _102
REMARK   34  A    between atoms: _101  and  _104
REMARK   35  A    between atoms: _104  and  _105
REMARK   36  A    between atoms: _104  and  _106
REMARK                            x       y       z     vdW  Elec       q    Type
REMARK                         _______ _______ _______ _____ _____    ______ ____
ROOT
ATOM      1  C   GLN A   4       6.280   1.432  20.725  0.00  0.00    +0.234 C 
ATOM      2  O   GLN A   4       5.446   2.063  20.072  0.00  0.00    -0.274 OA
ATOM      3  N   ALA A   5       6.494   0.089  20.559  0.00  0.00    -0.303 N 
ATOM      4  H   ALA A   5       7.201  -0.406  21.097  0.00  0.00    +0.149 HD
ENDROOT
BRANCH   3   5
ATOM      5  CA  ALA A   5       5.717  -0.723  19.629  0.00  0.00    +0.156 C 
ATOM      6  CB  ALA A   5       6.293  -0.668  18.219  0.00  0.00    +0.038 C 
BRANCH   5   7
ATOM      7  C   ALA A   5       5.727  -2.172  20.147  0.00  0.00    +0.234 C 
ATOM      8  N   GLU A   6       5.924  -2.288  21.498  0.00  0.00    -0.302 N 
ATOM      9  H   GLU A   6       6.194  -1.478  22.046  0.00  0.00    +0.150 HD
ATOM     10  O   ALA A   5       5.530  -3.128  19.397  0.00  0.00    -0.274 OA
BRANCH   8  11
ATOM     11  CA  GLU A   6       6.033  -3.576  22.186  0.00  0.00    +0.159 C 
BRANCH  11  12
ATOM     12  C   GLU A   6       5.008  -3.505  23.334  0.00  0.00    +0.234 C 
ATOM     13  O   GLU A   6       4.818  -2.473  23.984  0.00  0.00    -0.274 OA
ATOM     14  N   ASN A   7       4.318  -4.663  23.593  0.00  0.00    -0.302 N 
ATOM     15  H   ASN A   7       4.598  -5.521  23.118  0.00  0.00    +0.150 HD
BRANCH  14  16
ATOM     16  CA  ASN A   7       3.470  -4.826  24.773  0.00  0.00    +0.168 C 
BRANCH  16  17
ATOM     17  C   ASN A   7       4.259  -5.691  25.771  0.00  0.00    +0.234 C 
ATOM     18  N   VAL A   8       3.974  -5.460  27.094  0.00  0.00    -0.304 N 
ATOM     19  H   VAL A   8       3.287  -4.762  27.361  0.00  0.00    +0.149 HD
ATOM     20  O   ASN A   7       5.046  -6.559  25.397  0.00  0.00    -0.274 OA
BRANCH  18  21
ATOM     21  CA  VAL A   8       4.597  -6.215  28.177  0.00  0.00    +0.138 C 
BRANCH  21  22
ATOM     22  CB  VAL A   8       5.308  -5.309  29.204  0.00  0.00    +0.010 C 
ATOM     23  CG2 VAL A   8       5.852  -6.110  30.393  0.00  0.00    +0.009 C 
ATOM     24  CG1 VAL A   8       4.373  -4.214  29.734  0.00  0.00    +0.009 C 
ENDBRANCH  21  22
BRANCH  21  25
ATOM     25  C   VAL A   8       3.464  -7.001  28.831  0.00  0.00    +0.245 C 
ATOM     26  O   VAL A   8       2.289  -6.950  28.468  0.00  0.00    -0.299 OA
ENDBRANCH  21  25
ENDBRANCH  18  21
ENDBRANCH  16  17
BRANCH  16  27
ATOM     27  CB  ASN A   7       2.156  -5.546  24.475  0.00  0.00    +0.127 C 
BRANCH  27  28
ATOM     28  CG  ASN A   7       2.144  -6.598  23.388  0.00  0.00    +0.213 C 
ATOM     29  OD1 ASN A   7       1.896  -6.308  22.218  0.00  0.00    -0.276 OA
ATOM     30  ND2 ASN A   7       2.518  -7.868  23.692  0.00  0.00    -0.329 N 
ATOM     31 HD21 ASN A   7       2.408  -8.515  22.922  0.00  0.00    +0.145 HD
ATOM     32 HD22 ASN A   7       2.194  -8.263  24.578  0.00  0.00    +0.145 HD
ENDBRANCH  27  28
ENDBRANCH  16  27
ENDBRANCH  14  16
ENDBRANCH  11  12
BRANCH  11  33
ATOM     33  CB  GLU A   6       7.451  -3.771  22.728  0.00  0.00    +0.037 C 
BRANCH  33  34
ATOM     34  CG  GLU A   6       8.216  -2.466  22.931  0.00  0.00    +0.054 C 
BRANCH  34  35
ATOM     35  CD  GLU A   6       9.617  -2.648  23.521  0.00  0.00    +0.042 C 
ATOM     36  OE2 GLU A   6      10.487  -1.885  23.014  0.00  0.00    -0.550 OA
ATOM     37  OE1 GLU A   6       9.741  -3.533  24.410  0.00  0.00    -0.550 OA
ENDBRANCH  34  35
ENDBRANCH  33  34
ENDBRANCH  11  33
ENDBRANCH   8  11
ENDBRANCH   5   7
ENDBRANCH   3   5
BRANCH   1  38
ATOM     38  CA  GLN A   4       7.128   2.107  21.819  0.00  0.00    +0.159 C 
BRANCH  38  40
ATOM     39  C   LEU A   3       6.250   3.638  23.577  0.00  0.00    +0.234 C 
ATOM     40  N   GLN A   4       6.195   2.449  22.895  0.00  0.00    -0.302 N 
ATOM     41  H   GLN A   4       5.540   1.720  23.167  0.00  0.00    +0.150 HD
ATOM     42  O   LEU A   3       7.055   4.528  23.309  0.00  0.00    -0.274 OA
BRANCH  39  43
ATOM     43  CA  LEU A   3       5.193   3.799  24.690  0.00  0.00    +0.159 C 
BRANCH  43  46
ATOM     44  C   THR A   2       4.904   2.307  26.662  0.00  0.00    +0.236 C 
ATOM     45  O   THR A   2       3.680   2.251  26.539  0.00  0.00    -0.274 OA
ATOM     46  N   LEU A   3       5.703   3.074  25.850  0.00  0.00    -0.302 N 
ATOM     47  H   LEU A   3       6.715   2.995  25.911  0.00  0.00    +0.150 HD
BRANCH  44  48
ATOM     48  CA  THR A   2       5.648   1.491  27.727  0.00  0.00    +0.187 C 
BRANCH  48  50
ATOM     49  C   ALA A   1       6.222  -0.837  27.064  0.00  0.00    +0.230 C 
ATOM     50  N   THR A   2       6.453   0.514  26.988  0.00  0.00    -0.301 N 
ATOM     51  H   THR A   2       7.264   0.872  26.496  0.00  0.00    +0.150 HD
ATOM     52  O   ALA A   1       5.262  -1.334  27.651  0.00  0.00    -0.274 OA
BRANCH  49  53
ATOM     53  CA  ALA A   1       7.255  -1.697  26.309  0.00  0.00    +0.135 C 
ATOM     54  CB  ALA A   1       7.043  -3.165  26.650  0.00  0.00    +0.033 C 
BRANCH  53  55
ATOM     55  N   ALA A   1       8.621  -1.277  26.684  0.00  0.00    -0.320 NA
ATOM     56  H1  ALA A   1       8.674  -0.263  26.564  0.00  0.00    +0.119 HD
ATOM     57  H2  ALA A   1       8.695  -1.395  27.701  0.00  0.00    +0.119 HD
ENDBRANCH  53  55
ENDBRANCH  49  53
ENDBRANCH  48  50
BRANCH  48  58
ATOM     58  CB  THR A   2       6.535   2.439  28.570  0.00  0.00    +0.141 C 
ATOM     59  CG2 THR A   2       7.056   1.775  29.842  0.00  0.00    +0.040 C 
BRANCH  58  60
ATOM     60  OG1 THR A   2       7.666   2.878  27.804  0.00  0.00    -0.390 OA
ATOM     61  HG1 THR A   2       8.432   2.342  28.069  0.00  0.00    +0.210 HD
ENDBRANCH  58  60
ENDBRANCH  48  58
ENDBRANCH  44  48
ENDBRANCH  43  46
BRANCH  43  62
ATOM     62  CB  LEU A   3       4.989   5.292  24.992  0.00  0.00    +0.034 C 
BRANCH  62  63
ATOM     63  CG  LEU A   3       3.518   5.732  25.132  0.00  0.00    -0.015 C 
ATOM     64  CD2 LEU A   3       2.621   4.808  24.305  0.00  0.00    +0.007 C 
ATOM     65  CD1 LEU A   3       3.050   5.726  26.588  0.00  0.00    +0.007 C 
ENDBRANCH  62  63
ENDBRANCH  43  62
ENDBRANCH  39  43
ENDBRANCH  38  40
BRANCH  38  66
ATOM     66  CB  GLN A   4       8.221   1.164  22.336  0.00  0.00    +0.041 C 
BRANCH  66  67
ATOM     67  CG  GLN A   4       9.327   1.877  23.110  0.00  0.00    +0.098 C 
BRANCH  67  68
ATOM     68  CD  GLN A   4       9.317   1.433  24.554  0.00  0.00    +0.211 C 
ATOM     69  OE1 GLN A   4       8.399   1.678  25.326  0.00  0.00    -0.276 OA
ATOM     70  NE2 GLN A   4      10.374   0.660  24.932  0.00  0.00    -0.329 N 
ATOM     71 HE21 GLN A   4      11.255   0.703  24.435  0.00  0.00    +0.145 HD
ATOM     72 HE22 GLN A   4      10.426   0.442  25.920  0.00  0.00    +0.145 HD
ENDBRANCH  67  68
ENDBRANCH  66  67
ENDBRANCH  38  66
ENDBRANCH   1  38
TORSDOF 29
ENDMDL
MODEL 6
REMARK VINA RESULT:      -5.8      2.357      5.929
REMARK  Name = ATLQAENV-mmff94.pdb
REMARK  36 active torsions:
REMARK  status: ('A' for Active; 'I' for Inactive)
REMARK    1  A    between atoms: _1  and  _2
REMARK    2  A    between atoms: _2  and  _3
REMARK    3  A    between atoms: _2  and  _5
REMARK    4  A    between atoms: _11  and  _12
REMARK    5  A    between atoms: _12  and  _13
REMARK    6  A    between atoms: _12  and  _15
REMARK    7  A    between atoms: _15  and  _16
REMARK    8  A    between atoms: _15  and  _17
REMARK    9  A    between atoms: _25  and  _26
REMARK   10  A    between atoms: _26  and  _27
REMARK   11  A    between atoms: _26  and  _29
REMARK   12  A    between atoms: _29  and  _30
REMARK   13  A    between atoms: _30  and  _31
REMARK   14  A    between atoms: _30  and  _32
REMARK   15  A    between atoms: _44  and  _45
REMARK   16  A    between atoms: _45  and  _46
REMARK   17  A    between atoms: _45  and  _48
REMARK   18  A    between atoms: _48  and  _49
REMARK   19  A    between atoms: _49  and  _50
REMARK   20  A    between atoms: _61  and  _62
REMARK   21  A    between atoms: _62  and  _63
REMARK   22  A    between atoms: _62  and  _65
REMARK   23  A    between atoms: _71  and  _72
REMARK   24  A    between atoms: _72  and  _73
REMARK   25  A    between atoms: _72  and  _75
REMARK   26  A    between atoms: _75  and  _76
REMARK   27  A    between atoms: _76  and  _77
REMARK   28  A    between atoms: _86  and  _87
REMARK   29  A    between atoms: _87  and  _88
REMARK   30  A    between atoms: _87  and  _90
REMARK   31  A    between atoms: _90  and  _91
REMARK   32  A    between atoms: _100  and  _101
REMARK   33  A    between atoms: _101  and  _102
REMARK   34  A    between atoms: _101  and  _104
REMARK   35  A    between atoms: _104  and  _105
REMARK   36  A    between atoms: _104  and  _106
REMARK                            x       y       z     vdW  Elec       q    Type
REMARK                         _______ _______ _______ _____ _____    ______ ____
ROOT
ATOM      1  C   GLN A   4       6.562  -1.819  21.630  0.00  0.00    +0.234 C 
ATOM      2  O   GLN A   4       7.583  -2.311  22.115  0.00  0.00    -0.274 OA
ATOM      3  N   ALA A   5       5.358  -2.472  21.612  0.00  0.00    -0.303 N 
ATOM      4  H   ALA A   5       4.525  -2.038  21.222  0.00  0.00    +0.149 HD
ENDROOT
BRANCH   3   5
ATOM      5  CA  ALA A   5       5.190  -3.829  22.120  0.00  0.00    +0.156 C 
ATOM      6  CB  ALA A   5       6.426  -4.683  21.861  0.00  0.00    +0.038 C 
BRANCH   5   7
ATOM      7  C   ALA A   5       4.921  -3.736  23.632  0.00  0.00    +0.234 C 
ATOM      8  N   GLU A   6       5.216  -4.877  24.331  0.00  0.00    -0.302 N 
ATOM      9  H   GLU A   6       5.438  -5.735  23.836  0.00  0.00    +0.150 HD
ATOM     10  O   ALA A   5       4.513  -2.699  24.153  0.00  0.00    -0.274 OA
BRANCH   8  11
ATOM     11  CA  GLU A   6       4.973  -5.026  25.767  0.00  0.00    +0.159 C 
BRANCH  11  12
ATOM     12  C   GLU A   6       6.170  -4.338  26.449  0.00  0.00    +0.234 C 
ATOM     13  O   GLU A   6       6.379  -4.432  27.662  0.00  0.00    -0.274 OA
ATOM     14  N   ASN A   7       6.991  -3.608  25.626  0.00  0.00    -0.302 N 
ATOM     15  H   ASN A   7       6.709  -3.455  24.658  0.00  0.00    +0.150 HD
BRANCH  14  16
ATOM     16  CA  ASN A   7       8.040  -2.730  26.140  0.00  0.00    +0.168 C 
BRANCH  16  17
ATOM     17  C   ASN A   7       8.110  -1.520  25.192  0.00  0.00    +0.234 C 
ATOM     18  N   VAL A   8       9.338  -1.301  24.617  0.00  0.00    -0.304 N 
ATOM     19  H   VAL A   8      10.122  -1.912  24.824  0.00  0.00    +0.149 HD
ATOM     20  O   ASN A   7       7.119  -0.839  24.936  0.00  0.00    -0.274 OA
BRANCH  18  21
ATOM     21  CA  VAL A   8       9.578  -0.223  23.662  0.00  0.00    +0.138 C 
BRANCH  21  22
ATOM     22  CB  VAL A   8      10.270   0.999  24.304  0.00  0.00    +0.010 C 
ATOM     23  CG2 VAL A   8      10.561   2.096  23.273  0.00  0.00    +0.009 C 
ATOM     24  CG1 VAL A   8      11.584   0.607  24.991  0.00  0.00    +0.009 C 
ENDBRANCH  21  22
BRANCH  21  25
ATOM     25  C   VAL A   8      10.450  -0.835  22.568  0.00  0.00    +0.245 C 
ATOM     26  O   VAL A   8      10.815  -2.010  22.554  0.00  0.00    -0.299 OA
ENDBRANCH  21  25
ENDBRANCH  18  21
ENDBRANCH  16  17
BRANCH  16  27
ATOM     27  CB  ASN A   7       9.420  -3.385  26.156  0.00  0.00    +0.127 C 
BRANCH  27  28
ATOM     28  CG  ASN A   7       9.656  -4.585  25.264  0.00  0.00    +0.213 C 
ATOM     29  OD1 ASN A   7       9.267  -4.600  24.097  0.00  0.00    -0.276 OA
ATOM     30  ND2 ASN A   7      10.402  -5.619  25.730  0.00  0.00    -0.329 N 
ATOM     31 HD21 ASN A   7      10.443  -6.404  25.093  0.00  0.00    +0.145 HD
ATOM     32 HD22 ASN A   7      10.259  -5.914  26.699  0.00  0.00    +0.145 HD
ENDBRANCH  27  28
ENDBRANCH  16  27
ENDBRANCH  14  16
ENDBRANCH  11  12
BRANCH  11  33
ATOM     33  CB  GLU A   6       4.903  -6.508  26.145  0.00  0.00    +0.037 C 
BRANCH  33  34
ATOM     34  CG  GLU A   6       3.479  -7.055  26.219  0.00  0.00    +0.054 C 
BRANCH  34  35
ATOM     35  CD  GLU A   6       2.926  -7.539  24.876  0.00  0.00    +0.042 C 
ATOM     36  OE2 GLU A   6       2.625  -6.603  24.081  0.00  0.00    -0.550 OA
ATOM     37  OE1 GLU A   6       2.817  -8.786  24.730  0.00  0.00    -0.550 OA
ENDBRANCH  34  35
ENDBRANCH  33  34
ENDBRANCH  11  33
ENDBRANCH   8  11
ENDBRANCH   5   7
ENDBRANCH   3   5
BRANCH   1  38
ATOM     38  CA  GLN A   4       6.573  -0.431  20.964  0.00  0.00    +0.159 C 
BRANCH  38  40
ATOM     39  C   LEU A   3       6.096   1.811  21.939  0.00  0.00    +0.234 C 
ATOM     40  N   GLN A   4       6.595   0.539  22.061  0.00  0.00    -0.302 N 
ATOM     41  H   GLN A   4       7.072   0.245  22.909  0.00  0.00    +0.150 HD
ATOM     42  O   LEU A   3       5.550   2.222  20.916  0.00  0.00    -0.274 OA
BRANCH  39  43
ATOM     43  CA  LEU A   3       6.233   2.688  23.201  0.00  0.00    +0.159 C 
BRANCH  43  46
ATOM     44  C   THR A   2       5.676   2.242  25.586  0.00  0.00    +0.236 C 
ATOM     45  O   THR A   2       5.561   3.436  25.865  0.00  0.00    -0.274 OA
ATOM     46  N   LEU A   3       6.053   1.797  24.344  0.00  0.00    -0.302 N 
ATOM     47  H   LEU A   3       6.017   0.804  24.127  0.00  0.00    +0.150 HD
BRANCH  44  48
ATOM     48  CA  THR A   2       5.377   1.141  26.612  0.00  0.00    +0.187 C 
BRANCH  48  50
ATOM     49  C   ALA A   1       6.992   1.088  28.503  0.00  0.00    +0.230 C 
ATOM     50  N   THR A   2       5.894   1.639  27.890  0.00  0.00    -0.301 N 
ATOM     51  H   THR A   2       5.339   2.345  28.361  0.00  0.00    +0.150 HD
ATOM     52  O   ALA A   1       7.700   0.224  27.989  0.00  0.00    -0.274 OA
BRANCH  49  53
ATOM     53  CA  ALA A   1       7.297   1.676  29.896  0.00  0.00    +0.135 C 
ATOM     54  CB  ALA A   1       7.127   3.189  29.859  0.00  0.00    +0.033 C 
BRANCH  53  55
ATOM     55  N   ALA A   1       8.676   1.327  30.292  0.00  0.00    -0.320 NA
ATOM     56  H1  ALA A   1       9.220   1.207  29.435  0.00  0.00    +0.119 HD
ATOM     57  H2  ALA A   1       9.084   2.169  30.711  0.00  0.00    +0.119 HD
ENDBRANCH  53  55
ENDBRANCH  49  53
ENDBRANCH  48  50
BRANCH  48  58
ATOM     58  CB  THR A   2       3.849   0.898  26.671  0.00  0.00    +0.141 C 
ATOM     59  CG2 THR A   2       3.269   1.164  28.058  0.00  0.00    +0.040 C 
BRANCH  58  60
ATOM     60  OG1 THR A   2       3.172   1.749  25.736  0.00  0.00    -0.390 OA
ATOM     61  HG1 THR A   2       2.824   2.514  26.225  0.00  0.00    +0.210 HD
ENDBRANCH  58  60
ENDBRANCH  48  58
ENDBRANCH  44  48
ENDBRANCH  43  46
BRANCH  43  62
ATOM     62  CB  LEU A   3       7.614   3.361  23.213  0.00  0.00    +0.034 C 
BRANCH  62  63
ATOM     63  CG  LEU A   3       7.604   4.858  23.582  0.00  0.00    -0.015 C 
ATOM     64  CD2 LEU A   3       8.807   5.178  24.475  0.00  0.00    +0.007 C 
ATOM     65  CD1 LEU A   3       7.636   5.758  22.346  0.00  0.00    +0.007 C 
ENDBRANCH  62  63
ENDBRANCH  43  62
ENDBRANCH  39  43
ENDBRANCH  38  40
BRANCH  38  66
ATOM     66  CB  GLN A   4       7.803  -0.254  20.066  0.00  0.00    +0.041 C 
BRANCH  66  67
ATOM     67  CG  GLN A   4       7.482   0.350  18.701  0.00  0.00    +0.098 C 
BRANCH  67  68
ATOM     68  CD  GLN A   4       6.179  -0.210  18.181  0.00  0.00    +0.211 C 
ATOM     69  OE1 GLN A   4       6.044  -1.371  17.814  0.00  0.00    -0.276 OA
ATOM     70  NE2 GLN A   4       5.120   0.648  18.220  0.00  0.00    -0.329 N 
ATOM     71 HE21 GLN A   4       5.262   1.650  18.221  0.00  0.00    +0.145 HD
ATOM     72 HE22 GLN A   4       4.269   0.314  17.783  0.00  0.00    +0.145 HD
ENDBRANCH  67  68
ENDBRANCH  66  67
ENDBRANCH  38  66
ENDBRANCH   1  38
TORSDOF 29
ENDMDL
MODEL 7
REMARK VINA RESULT:      -5.7      2.108      9.240
REMARK  Name = ATLQAENV-mmff94.pdb
REMARK  36 active torsions:
REMARK  status: ('A' for Active; 'I' for Inactive)
REMARK    1  A    between atoms: _1  and  _2
REMARK    2  A    between atoms: _2  and  _3
REMARK    3  A    between atoms: _2  and  _5
REMARK    4  A    between atoms: _11  and  _12
REMARK    5  A    between atoms: _12  and  _13
REMARK    6  A    between atoms: _12  and  _15
REMARK    7  A    between atoms: _15  and  _16
REMARK    8  A    between atoms: _15  and  _17
REMARK    9  A    between atoms: _25  and  _26
REMARK   10  A    between atoms: _26  and  _27
REMARK   11  A    between atoms: _26  and  _29
REMARK   12  A    between atoms: _29  and  _30
REMARK   13  A    between atoms: _30  and  _31
REMARK   14  A    between atoms: _30  and  _32
REMARK   15  A    between atoms: _44  and  _45
REMARK   16  A    between atoms: _45  and  _46
REMARK   17  A    between atoms: _45  and  _48
REMARK   18  A    between atoms: _48  and  _49
REMARK   19  A    between atoms: _49  and  _50
REMARK   20  A    between atoms: _61  and  _62
REMARK   21  A    between atoms: _62  and  _63
REMARK   22  A    between atoms: _62  and  _65
REMARK   23  A    between atoms: _71  and  _72
REMARK   24  A    between atoms: _72  and  _73
REMARK   25  A    between atoms: _72  and  _75
REMARK   26  A    between atoms: _75  and  _76
REMARK   27  A    between atoms: _76  and  _77
REMARK   28  A    between atoms: _86  and  _87
REMARK   29  A    between atoms: _87  and  _88
REMARK   30  A    between atoms: _87  and  _90
REMARK   31  A    between atoms: _90  and  _91
REMARK   32  A    between atoms: _100  and  _101
REMARK   33  A    between atoms: _101  and  _102
REMARK   34  A    between atoms: _101  and  _104
REMARK   35  A    between atoms: _104  and  _105
REMARK   36  A    between atoms: _104  and  _106
REMARK                            x       y       z     vdW  Elec       q    Type
REMARK                         _______ _______ _______ _____ _____    ______ ____
ROOT
ATOM      1  C   GLN A   4       4.319  -1.799  27.930  0.00  0.00    +0.234 C 
ATOM      2  O   GLN A   4       4.137  -1.362  29.068  0.00  0.00    -0.274 OA
ATOM      3  N   ALA A   5       4.925  -1.069  26.941  0.00  0.00    -0.303 N 
ATOM      4  H   ALA A   5       5.080  -1.458  26.014  0.00  0.00    +0.149 HD
ENDROOT
BRANCH   3   5
ATOM      5  CA  ALA A   5       5.363   0.309  27.135  0.00  0.00    +0.156 C 
ATOM      6  CB  ALA A   5       6.703   0.572  26.459  0.00  0.00    +0.038 C 
BRANCH   5   7
ATOM      7  C   ALA A   5       4.283   1.234  26.546  0.00  0.00    +0.234 C 
ATOM      8  N   GLU A   6       4.751   2.448  26.118  0.00  0.00    -0.302 N 
ATOM      9  H   GLU A   6       5.701   2.734  26.334  0.00  0.00    +0.150 HD
ATOM     10  O   ALA A   5       3.111   0.874  26.441  0.00  0.00    -0.274 OA
BRANCH   8  11
ATOM     11  CA  GLU A   6       3.885   3.502  25.586  0.00  0.00    +0.159 C 
BRANCH  11  12
ATOM     12  C   GLU A   6       4.276   3.631  24.102  0.00  0.00    +0.234 C 
ATOM     13  O   GLU A   6       3.433   3.673  23.201  0.00  0.00    -0.274 OA
ATOM     14  N   ASN A   7       5.622   3.694  23.840  0.00  0.00    -0.302 N 
ATOM     15  H   ASN A   7       6.280   3.528  24.601  0.00  0.00    +0.150 HD
BRANCH  14  16
ATOM     16  CA  ASN A   7       6.164   3.607  22.485  0.00  0.00    +0.168 C 
BRANCH  16  17
ATOM     17  C   ASN A   7       6.330   2.110  22.169  0.00  0.00    +0.234 C 
ATOM     18  N   VAL A   8       6.284   1.788  20.835  0.00  0.00    -0.304 N 
ATOM     19  H   VAL A   8       6.150   2.509  20.133  0.00  0.00    +0.149 HD
ATOM     20  O   ASN A   7       6.539   1.280  23.052  0.00  0.00    -0.274 OA
BRANCH  18  21
ATOM     21  CA  VAL A   8       6.463   0.423  20.348  0.00  0.00    +0.138 C 
BRANCH  21  22
ATOM     22  CB  VAL A   8       5.618   0.123  19.092  0.00  0.00    +0.010 C 
ATOM     23  CG2 VAL A   8       5.925  -1.265  18.516  0.00  0.00    +0.009 C 
ATOM     24  CG1 VAL A   8       5.844   1.172  17.996  0.00  0.00    +0.009 C 
ENDBRANCH  21  22
BRANCH  21  25
ATOM     25  C   VAL A   8       7.954   0.288  20.051  0.00  0.00    +0.245 C 
ATOM     26  O   VAL A   8       8.703  -0.503  20.626  0.00  0.00    -0.299 OA
ENDBRANCH  21  25
ENDBRANCH  18  21
ENDBRANCH  16  17
BRANCH  16  27
ATOM     27  CB  ASN A   7       7.535   4.264  22.343  0.00  0.00    +0.127 C 
BRANCH  27  28
ATOM     28  CG  ASN A   7       8.416   4.361  23.569  0.00  0.00    +0.213 C 
ATOM     29  OD1 ASN A   7       8.897   3.357  24.093  0.00  0.00    -0.276 OA
ATOM     30  ND2 ASN A   7       8.768   5.587  24.035  0.00  0.00    -0.329 N 
ATOM     31 HD21 ASN A   7       9.296   5.552  24.898  0.00  0.00    +0.145 HD
ATOM     32 HD22 ASN A   7       8.053   6.318  24.048  0.00  0.00    +0.145 HD
ENDBRANCH  27  28
ENDBRANCH  16  27
ENDBRANCH  14  16
ENDBRANCH  11  12
BRANCH  11  33
ATOM     33  CB  GLU A   6       4.123   4.816  26.334  0.00  0.00    +0.037 C 
BRANCH  33  34
ATOM     34  CG  GLU A   6       5.167   4.710  27.443  0.00  0.00    +0.054 C 
BRANCH  34  35
ATOM     35  CD  GLU A   6       6.610   4.880  26.960  0.00  0.00    +0.042 C 
ATOM     36  OE2 GLU A   6       7.409   4.020  27.427  0.00  0.00    -0.550 OA
ATOM     37  OE1 GLU A   6       6.831   5.849  26.185  0.00  0.00    -0.550 OA
ENDBRANCH  34  35
ENDBRANCH  33  34
ENDBRANCH  11  33
ENDBRANCH   8  11
ENDBRANCH   5   7
ENDBRANCH   3   5
BRANCH   1  38
ATOM     38  CA  GLN A   4       3.837  -3.201  27.517  0.00  0.00    +0.159 C 
BRANCH  38  40
ATOM     39  C   LEU A   3       3.708  -3.432  25.041  0.00  0.00    +0.234 C 
ATOM     40  N   GLN A   4       4.433  -3.459  26.205  0.00  0.00    -0.302 N 
ATOM     41  H   GLN A   4       5.411  -3.735  26.204  0.00  0.00    +0.150 HD
ATOM     42  O   LEU A   3       2.512  -3.145  25.001  0.00  0.00    -0.274 OA
BRANCH  39  43
ATOM     43  CA  LEU A   3       4.513  -3.751  23.764  0.00  0.00    +0.159 C 
BRANCH  43  46
ATOM     44  C   THR A   2       6.944  -3.230  23.628  0.00  0.00    +0.236 C 
ATOM     45  O   THR A   2       6.810  -2.479  22.661  0.00  0.00    -0.274 OA
ATOM     46  N   LEU A   3       5.900  -3.927  24.184  0.00  0.00    -0.302 N 
ATOM     47  H   LEU A   3       6.036  -4.438  25.053  0.00  0.00    +0.150 HD
BRANCH  44  48
ATOM     48  CA  THR A   2       8.302  -3.428  24.315  0.00  0.00    +0.187 C 
BRANCH  48  50
ATOM     49  C   ALA A   1       9.951  -1.691  23.642  0.00  0.00    +0.230 C 
ATOM     50  N   THR A   2       8.891  -2.090  24.419  0.00  0.00    -0.301 N 
ATOM     51  H   THR A   2       8.551  -1.500  25.170  0.00  0.00    +0.150 HD
ATOM     52  O   ALA A   1      10.415  -2.363  22.723  0.00  0.00    -0.274 OA
BRANCH  49  53
ATOM     53  CA  ALA A   1      10.499  -0.293  23.993  0.00  0.00    +0.135 C 
ATOM     54  CB  ALA A   1       9.991   0.123  25.366  0.00  0.00    +0.033 C 
BRANCH  53  55
ATOM     55  N   ALA A   1      10.065   0.682  22.971  0.00  0.00    -0.320 NA
ATOM     56  H1  ALA A   1      10.356   0.321  22.060  0.00  0.00    +0.119 HD
ATOM     57  H2  ALA A   1       9.042   0.626  22.928  0.00  0.00    +0.119 HD
ENDBRANCH  53  55
ENDBRANCH  49  53
ENDBRANCH  48  50
BRANCH  48  58
ATOM     58  CB  THR A   2       8.082  -4.064  25.709  0.00  0.00    +0.141 C 
ATOM     59  CG2 THR A   2       9.391  -4.484  26.372  0.00  0.00    +0.040 C 
BRANCH  58  60
ATOM     60  OG1 THR A   2       7.420  -3.137  26.581  0.00  0.00    -0.390 OA
ATOM     61  HG1 THR A   2       6.463  -3.292  26.511  0.00  0.00    +0.210 HD
ENDBRANCH  58  60
ENDBRANCH  48  58
ENDBRANCH  44  48
ENDBRANCH  43  46
BRANCH  43  62
ATOM     62  CB  LEU A   3       3.951  -5.020  23.104  0.00  0.00    +0.034 C 
BRANCH  62  63
ATOM     63  CG  LEU A   3       3.376  -6.062  24.084  0.00  0.00    -0.015 C 
ATOM     64  CD2 LEU A   3       2.173  -6.764  23.447  0.00  0.00    +0.007 C 
ATOM     65  CD1 LEU A   3       4.417  -7.107  24.490  0.00  0.00    +0.007 C 
ENDBRANCH  62  63
ENDBRANCH  43  62
ENDBRANCH  39  43
ENDBRANCH  38  40
BRANCH  38  66
ATOM     66  CB  GLN A   4       4.285  -4.264  28.528  0.00  0.00    +0.041 C 
BRANCH  66  67
ATOM     67  CG  GLN A   4       4.411  -5.663  27.930  0.00  0.00    +0.098 C 
BRANCH  67  68
ATOM     68  CD  GLN A   4       5.740  -6.271  28.312  0.00  0.00    +0.211 C 
ATOM     69  OE1 GLN A   4       6.770  -5.618  28.426  0.00  0.00    -0.276 OA
ATOM     70  NE2 GLN A   4       5.708  -7.602  28.603  0.00  0.00    -0.329 N 
ATOM     71 HE21 GLN A   4       4.980  -8.199  28.232  0.00  0.00    +0.145 HD
ATOM     72 HE22 GLN A   4       6.609  -8.037  28.763  0.00  0.00    +0.145 HD
ENDBRANCH  67  68
ENDBRANCH  66  67
ENDBRANCH  38  66
ENDBRANCH   1  38
TORSDOF 29
ENDMDL
MODEL 8
REMARK VINA RESULT:      -5.7      2.187      4.879
REMARK  Name = ATLQAENV-mmff94.pdb
REMARK  36 active torsions:
REMARK  status: ('A' for Active; 'I' for Inactive)
REMARK    1  A    between atoms: _1  and  _2
REMARK    2  A    between atoms: _2  and  _3
REMARK    3  A    between atoms: _2  and  _5
REMARK    4  A    between atoms: _11  and  _12
REMARK    5  A    between atoms: _12  and  _13
REMARK    6  A    between atoms: _12  and  _15
REMARK    7  A    between atoms: _15  and  _16
REMARK    8  A    between atoms: _15  and  _17
REMARK    9  A    between atoms: _25  and  _26
REMARK   10  A    between atoms: _26  and  _27
REMARK   11  A    between atoms: _26  and  _29
REMARK   12  A    between atoms: _29  and  _30
REMARK   13  A    between atoms: _30  and  _31
REMARK   14  A    between atoms: _30  and  _32
REMARK   15  A    between atoms: _44  and  _45
REMARK   16  A    between atoms: _45  and  _46
REMARK   17  A    between atoms: _45  and  _48
REMARK   18  A    between atoms: _48  and  _49
REMARK   19  A    between atoms: _49  and  _50
REMARK   20  A    between atoms: _61  and  _62
REMARK   21  A    between atoms: _62  and  _63
REMARK   22  A    between atoms: _62  and  _65
REMARK   23  A    between atoms: _71  and  _72
REMARK   24  A    between atoms: _72  and  _73
REMARK   25  A    between atoms: _72  and  _75
REMARK   26  A    between atoms: _75  and  _76
REMARK   27  A    between atoms: _76  and  _77
REMARK   28  A    between atoms: _86  and  _87
REMARK   29  A    between atoms: _87  and  _88
REMARK   30  A    between atoms: _87  and  _90
REMARK   31  A    between atoms: _90  and  _91
REMARK   32  A    between atoms: _100  and  _101
REMARK   33  A    between atoms: _101  and  _102
REMARK   34  A    between atoms: _101  and  _104
REMARK   35  A    between atoms: _104  and  _105
REMARK   36  A    between atoms: _104  and  _106
REMARK                            x       y       z     vdW  Elec       q    Type
REMARK                         _______ _______ _______ _____ _____    ______ ____
ROOT
ATOM      1  C   GLN A   4       5.998  -2.092  23.024  0.00  0.00    +0.234 C 
ATOM      2  O   GLN A   4       5.564  -1.979  24.172  0.00  0.00    -0.274 OA
ATOM      3  N   ALA A   5       6.113  -3.300  22.388  0.00  0.00    -0.303 N 
ATOM      4  H   ALA A   5       6.458  -3.367  21.433  0.00  0.00    +0.149 HD
ENDROOT
BRANCH   3   5
ATOM      5  CA  ALA A   5       5.780  -4.565  23.034  0.00  0.00    +0.156 C 
ATOM      6  CB  ALA A   5       5.550  -5.673  22.013  0.00  0.00    +0.038 C 
BRANCH   5   7
ATOM      7  C   ALA A   5       6.944  -4.939  23.967  0.00  0.00    +0.234 C 
ATOM      8  N   GLU A   6       6.590  -5.090  25.282  0.00  0.00    -0.302 N 
ATOM      9  H   GLU A   6       5.665  -4.814  25.596  0.00  0.00    +0.150 HD
ATOM     10  O   ALA A   5       8.083  -5.124  23.538  0.00  0.00    -0.274 OA
BRANCH   8  11
ATOM     11  CA  GLU A   6       7.553  -5.380  26.346  0.00  0.00    +0.159 C 
BRANCH  11  12
ATOM     12  C   GLU A   6       6.709  -5.927  27.512  0.00  0.00    +0.234 C 
ATOM     13  O   GLU A   6       7.222  -6.421  28.521  0.00  0.00    -0.274 OA
ATOM     14  N   ASN A   7       5.347  -5.838  27.361  0.00  0.00    -0.302 N 
ATOM     15  H   ASN A   7       4.970  -5.541  26.461  0.00  0.00    +0.150 HD
BRANCH  14  16
ATOM     16  CA  ASN A   7       4.410  -6.495  28.270  0.00  0.00    +0.168 C 
BRANCH  16  17
ATOM     17  C   ASN A   7       3.125  -6.761  27.466  0.00  0.00    +0.234 C 
ATOM     18  N   VAL A   8       3.133  -6.281  26.180  0.00  0.00    -0.304 N 
ATOM     19  H   VAL A   8       3.943  -5.790  25.816  0.00  0.00    +0.149 HD
ATOM     20  O   ASN A   7       2.188  -7.405  27.936  0.00  0.00    -0.274 OA
BRANCH  18  21
ATOM     21  CA  VAL A   8       2.016  -6.476  25.261  0.00  0.00    +0.138 C 
BRANCH  21  22
ATOM     22  CB  VAL A   8       1.606  -5.177  24.535  0.00  0.00    +0.010 C 
ATOM     23  CG2 VAL A   8       1.455  -5.390  23.024  0.00  0.00    +0.009 C 
ATOM     24  CG1 VAL A   8       2.621  -4.053  24.775  0.00  0.00    +0.009 C 
ENDBRANCH  21  22
BRANCH  21  25
ATOM     25  C   VAL A   8       2.487  -7.535  24.266  0.00  0.00    +0.245 C 
ATOM     26  O   VAL A   8       2.554  -8.737  24.518  0.00  0.00    -0.299 OA
ENDBRANCH  21  25
ENDBRANCH  18  21
ENDBRANCH  16  17
BRANCH  16  27
ATOM     27  CB  ASN A   7       4.032  -5.631  29.472  0.00  0.00    +0.127 C 
BRANCH  27  28
ATOM     28  CG  ASN A   7       3.836  -4.146  29.256  0.00  0.00    +0.213 C 
ATOM     29  OD1 ASN A   7       3.323  -3.711  28.226  0.00  0.00    -0.276 OA
ATOM     30  ND2 ASN A   7       4.135  -3.286  30.263  0.00  0.00    -0.329 N 
ATOM     31 HD21 ASN A   7       4.042  -2.313  30.002  0.00  0.00    +0.145 HD
ATOM     32 HD22 ASN A   7       4.985  -3.460  30.806  0.00  0.00    +0.145 HD
ENDBRANCH  27  28
ENDBRANCH  16  27
ENDBRANCH  14  16
ENDBRANCH  11  12
BRANCH  11  33
ATOM     33  CB  GLU A   6       8.294  -4.105  26.756  0.00  0.00    +0.037 C 
BRANCH  33  34
ATOM     34  CG  GLU A   6       7.397  -2.872  26.834  0.00  0.00    +0.054 C 
BRANCH  34  35
ATOM     35  CD  GLU A   6       8.062  -1.584  26.340  0.00  0.00    +0.042 C 
ATOM     36  OE2 GLU A   6       8.782  -1.742  25.314  0.00  0.00    -0.550 OA
ATOM     37  OE1 GLU A   6       7.835  -0.542  27.013  0.00  0.00    -0.550 OA
ENDBRANCH  34  35
ENDBRANCH  33  34
ENDBRANCH  11  33
ENDBRANCH   8  11
ENDBRANCH   5   7
ENDBRANCH   3   5
BRANCH   1  38
ATOM     38  CA  GLN A   4       6.486  -0.872  22.222  0.00  0.00    +0.159 C 
BRANCH  38  40
ATOM     39  C   LEU A   3       7.077   1.332  23.220  0.00  0.00    +0.234 C 
ATOM     40  N   GLN A   4       7.215  -0.032  23.174  0.00  0.00    -0.302 N 
ATOM     41  H   GLN A   4       7.896  -0.508  23.760  0.00  0.00    +0.150 HD
ATOM     42  O   LEU A   3       6.297   1.952  22.498  0.00  0.00    -0.274 OA
BRANCH  39  43
ATOM     43  CA  LEU A   3       7.947   2.040  24.279  0.00  0.00    +0.159 C 
BRANCH  43  46
ATOM     44  C   THR A   2       7.128   2.974  26.437  0.00  0.00    +0.236 C 
ATOM     45  O   THR A   2       7.731   4.039  26.296  0.00  0.00    -0.274 OA
ATOM     46  N   LEU A   3       7.223   1.937  25.543  0.00  0.00    -0.302 N 
ATOM     47  H   LEU A   3       6.615   1.127  25.638  0.00  0.00    +0.150 HD
BRANCH  44  48
ATOM     48  CA  THR A   2       6.189   2.729  27.626  0.00  0.00    +0.187 C 
BRANCH  48  50
ATOM     49  C   ALA A   1       4.191   1.259  27.438  0.00  0.00    +0.230 C 
ATOM     50  N   THR A   2       5.551   1.435  27.366  0.00  0.00    -0.301 N 
ATOM     51  H   THR A   2       6.168   0.642  27.234  0.00  0.00    +0.150 HD
ATOM     52  O   ALA A   1       3.391   2.178  27.605  0.00  0.00    -0.274 OA
BRANCH  49  53
ATOM     53  CA  ALA A   1       3.735  -0.202  27.251  0.00  0.00    +0.135 C 
ATOM     54  CB  ALA A   1       2.325  -0.370  27.800  0.00  0.00    +0.033 C 
BRANCH  53  55
ATOM     55  N   ALA A   1       4.667  -1.108  27.952  0.00  0.00    -0.320 NA
ATOM     56  H1  ALA A   1       4.837  -0.715  28.881  0.00  0.00    +0.119 HD
ATOM     57  H2  ALA A   1       4.146  -1.968  28.155  0.00  0.00    +0.119 HD
ENDBRANCH  53  55
ENDBRANCH  49  53
ENDBRANCH  48  50
BRANCH  48  58
ATOM     58  CB  THR A   2       7.016   2.704  28.934  0.00  0.00    +0.141 C 
ATOM     59  CG2 THR A   2       6.142   2.831  30.180  0.00  0.00    +0.040 C 
BRANCH  58  60
ATOM     60  OG1 THR A   2       7.756   1.480  29.034  0.00  0.00    -0.390 OA
ATOM     61  HG1 THR A   2       8.516   1.540  28.431  0.00  0.00    +0.210 HD
ENDBRANCH  58  60
ENDBRANCH  48  58
ENDBRANCH  44  48
ENDBRANCH  43  46
BRANCH  43  62
ATOM     62  CB  LEU A   3       9.323   1.360  24.352  0.00  0.00    +0.034 C 
BRANCH  62  63
ATOM     63  CG  LEU A   3      10.410   1.996  23.462  0.00  0.00    -0.015 C 
ATOM     64  CD2 LEU A   3      10.105   1.708  21.989  0.00  0.00    +0.007 C 
ATOM     65  CD1 LEU A   3      10.518   3.507  23.673  0.00  0.00    +0.007 C 
ENDBRANCH  62  63
ENDBRANCH  43  62
ENDBRANCH  39  43
ENDBRANCH  38  40
BRANCH  38  66
ATOM     66  CB  GLN A   4       7.404  -1.297  21.068  0.00  0.00    +0.041 C 
BRANCH  66  67
ATOM     67  CG  GLN A   4       7.704  -0.172  20.080  0.00  0.00    +0.098 C 
BRANCH  67  68
ATOM     68  CD  GLN A   4       6.663  -0.155  18.985  0.00  0.00    +0.211 C 
ATOM     69  OE1 GLN A   4       6.767   0.522  17.969  0.00  0.00    -0.276 OA
ATOM     70  NE2 GLN A   4       5.619  -1.013  19.161  0.00  0.00    -0.329 N 
ATOM     71 HE21 GLN A   4       5.358  -1.333  20.085  0.00  0.00    +0.145 HD
ATOM     72 HE22 GLN A   4       4.870  -0.936  18.483  0.00  0.00    +0.145 HD
ENDBRANCH  67  68
ENDBRANCH  66  67
ENDBRANCH  38  66
ENDBRANCH   1  38
TORSDOF 29
ENDMDL
MODEL 9
REMARK VINA RESULT:      -5.7      2.068      7.595
REMARK  Name = ATLQAENV-mmff94.pdb
REMARK  36 active torsions:
REMARK  status: ('A' for Active; 'I' for Inactive)
REMARK    1  A    between atoms: _1  and  _2
REMARK    2  A    between atoms: _2  and  _3
REMARK    3  A    between atoms: _2  and  _5
REMARK    4  A    between atoms: _11  and  _12
REMARK    5  A    between atoms: _12  and  _13
REMARK    6  A    between atoms: _12  and  _15
REMARK    7  A    between atoms: _15  and  _16
REMARK    8  A    between atoms: _15  and  _17
REMARK    9  A    between atoms: _25  and  _26
REMARK   10  A    between atoms: _26  and  _27
REMARK   11  A    between atoms: _26  and  _29
REMARK   12  A    between atoms: _29  and  _30
REMARK   13  A    between atoms: _30  and  _31
REMARK   14  A    between atoms: _30  and  _32
REMARK   15  A    between atoms: _44  and  _45
REMARK   16  A    between atoms: _45  and  _46
REMARK   17  A    between atoms: _45  and  _48
REMARK   18  A    between atoms: _48  and  _49
REMARK   19  A    between atoms: _49  and  _50
REMARK   20  A    between atoms: _61  and  _62
REMARK   21  A    between atoms: _62  and  _63
REMARK   22  A    between atoms: _62  and  _65
REMARK   23  A    between atoms: _71  and  _72
REMARK   24  A    between atoms: _72  and  _73
REMARK   25  A    between atoms: _72  and  _75
REMARK   26  A    between atoms: _75  and  _76
REMARK   27  A    between atoms: _76  and  _77
REMARK   28  A    between atoms: _86  and  _87
REMARK   29  A    between atoms: _87  and  _88
REMARK   30  A    between atoms: _87  and  _90
REMARK   31  A    between atoms: _90  and  _91
REMARK   32  A    between atoms: _100  and  _101
REMARK   33  A    between atoms: _101  and  _102
REMARK   34  A    between atoms: _101  and  _104
REMARK   35  A    between atoms: _104  and  _105
REMARK   36  A    between atoms: _104  and  _106
REMARK                            x       y       z     vdW  Elec       q    Type
REMARK                         _______ _______ _______ _____ _____    ______ ____
ROOT
ATOM      1  C   GLN A   4       8.333  -1.908  23.913  0.00  0.00    +0.234 C 
ATOM      2  O   GLN A   4       9.426  -2.206  23.428  0.00  0.00    -0.274 OA
ATOM      3  N   ALA A   5       7.190  -1.806  23.163  0.00  0.00    -0.303 N 
ATOM      4  H   ALA A   5       6.295  -1.576  23.588  0.00  0.00    +0.149 HD
ENDROOT
BRANCH   3   5
ATOM      5  CA  ALA A   5       7.178  -1.991  21.716  0.00  0.00    +0.156 C 
ATOM      6  CB  ALA A   5       5.860  -2.588  21.238  0.00  0.00    +0.038 C 
BRANCH   5   7
ATOM      7  C   ALA A   5       7.404  -0.617  21.063  0.00  0.00    +0.234 C 
ATOM      8  N   GLU A   6       6.387   0.280  21.266  0.00  0.00    -0.302 N 
ATOM      9  H   GLU A   6       5.512  -0.026  21.679  0.00  0.00    +0.150 HD
ATOM     10  O   ALA A   5       8.438  -0.354  20.449  0.00  0.00    -0.274 OA
BRANCH   8  11
ATOM     11  CA  GLU A   6       6.369   1.621  20.679  0.00  0.00    +0.159 C 
BRANCH  11  12
ATOM     12  C   GLU A   6       6.304   2.583  21.879  0.00  0.00    +0.234 C 
ATOM     13  O   GLU A   6       6.611   3.775  21.784  0.00  0.00    -0.274 OA
ATOM     14  N   ASN A   7       5.888   2.034  23.066  0.00  0.00    -0.302 N 
ATOM     15  H   ASN A   7       5.768   1.024  23.127  0.00  0.00    +0.150 HD
BRANCH  14  16
ATOM     16  CA  ASN A   7       5.972   2.752  24.337  0.00  0.00    +0.168 C 
BRANCH  16  17
ATOM     17  C   ASN A   7       7.443   2.693  24.784  0.00  0.00    +0.234 C 
ATOM     18  N   VAL A   8       8.319   3.404  24.000  0.00  0.00    -0.304 N 
ATOM     19  H   VAL A   8       7.987   3.920  23.192  0.00  0.00    +0.149 HD
ATOM     20  O   ASN A   7       7.788   2.093  25.800  0.00  0.00    -0.274 OA
BRANCH  18  21
ATOM     21  CA  VAL A   8       9.745   3.493  24.296  0.00  0.00    +0.138 C 
BRANCH  21  22
ATOM     22  CB  VAL A   8      10.577   2.431  23.547  0.00  0.00    +0.010 C 
ATOM     23  CG2 VAL A   8       9.953   2.066  22.195  0.00  0.00    +0.009 C 
ATOM     24  CG1 VAL A   8      10.738   1.151  24.376  0.00  0.00    +0.009 C 
ENDBRANCH  21  22
BRANCH  21  25
ATOM     25  C   VAL A   8      10.160   4.904  23.887  0.00  0.00    +0.245 C 
ATOM     26  O   VAL A   8       9.373   5.770  23.504  0.00  0.00    -0.299 OA
ENDBRANCH  21  25
ENDBRANCH  18  21
ENDBRANCH  16  17
BRANCH  16  27
ATOM     27  CB  ASN A   7       5.128   2.120  25.442  0.00  0.00    +0.127 C 
BRANCH  27  28
ATOM     28  CG  ASN A   7       4.862   2.927  26.694  0.00  0.00    +0.213 C 
ATOM     29  OD1 ASN A   7       3.990   3.794  26.723  0.00  0.00    -0.276 OA
ATOM     30  ND2 ASN A   7       5.526   2.614  27.836  0.00  0.00    -0.329 N 
ATOM     31 HD21 ASN A   7       5.337   3.253  28.598  0.00  0.00    +0.145 HD
ATOM     32 HD22 ASN A   7       6.519   2.381  27.764  0.00  0.00    +0.145 HD
ENDBRANCH  27  28
ENDBRANCH  16  27
ENDBRANCH  14  16
ENDBRANCH  11  12
BRANCH  11  33
ATOM     33  CB  GLU A   6       5.145   1.789  19.774  0.00  0.00    +0.037 C 
BRANCH  33  34
ATOM     34  CG  GLU A   6       4.872   0.581  18.881  0.00  0.00    +0.054 C 
BRANCH  34  35
ATOM     35  CD  GLU A   6       5.953   0.327  17.826  0.00  0.00    +0.042 C 
ATOM     36  OE2 GLU A   6       6.297  -0.885  17.731  0.00  0.00    -0.550 OA
ATOM     37  OE1 GLU A   6       6.378   1.338  17.205  0.00  0.00    -0.550 OA
ENDBRANCH  34  35
ENDBRANCH  33  34
ENDBRANCH  11  33
ENDBRANCH   8  11
ENDBRANCH   5   7
ENDBRANCH   3   5
BRANCH   1  38
ATOM     38  CA  GLN A   4       8.173  -1.585  25.410  0.00  0.00    +0.159 C 
BRANCH  38  40
ATOM     39  C   LEU A   3       6.089  -1.194  26.715  0.00  0.00    +0.234 C 
ATOM     40  N   GLN A   4       6.772  -1.863  25.732  0.00  0.00    -0.302 N 
ATOM     41  H   GLN A   4       6.344  -2.639  25.234  0.00  0.00    +0.150 HD
ATOM     42  O   LEU A   3       6.583  -0.278  27.372  0.00  0.00    -0.274 OA
BRANCH  39  43
ATOM     43  CA  LEU A   3       4.628  -1.647  26.917  0.00  0.00    +0.159 C 
BRANCH  43  46
ATOM     44  C   THR A   2       3.835  -3.987  26.607  0.00  0.00    +0.236 C 
ATOM     45  O   THR A   2       2.907  -3.659  25.867  0.00  0.00    -0.274 OA
ATOM     46  N   LEU A   3       4.675  -3.078  27.202  0.00  0.00    -0.302 N 
ATOM     47  H   LEU A   3       5.498  -3.400  27.705  0.00  0.00    +0.150 HD
BRANCH  44  48
ATOM     48  CA  THR A   2       4.148  -5.459  26.907  0.00  0.00    +0.187 C 
BRANCH  48  50
ATOM     49  C   ALA A   1       5.228  -5.465  24.666  0.00  0.00    +0.230 C 
ATOM     50  N   THR A   2       4.437  -6.075  25.608  0.00  0.00    -0.301 N 
ATOM     51  H   THR A   2       3.939  -6.930  25.389  0.00  0.00    +0.150 HD
ATOM     52  O   ALA A   1       5.852  -4.425  24.867  0.00  0.00    -0.274 OA
BRANCH  49  53
ATOM     53  CA  ALA A   1       5.307  -6.222  23.325  0.00  0.00    +0.135 C 
ATOM     54  CB  ALA A   1       6.588  -5.840  22.598  0.00  0.00    +0.033 C 
BRANCH  53  55
ATOM     55  N   ALA A   1       4.131  -5.888  22.496  0.00  0.00    -0.320 NA
ATOM     56  H1  ALA A   1       4.371  -5.064  21.941  0.00  0.00    +0.119 HD
ATOM     57  H2  ALA A   1       4.048  -6.629  21.791  0.00  0.00    +0.119 HD
ENDBRANCH  53  55
ENDBRANCH  49  53
ENDBRANCH  48  50
BRANCH  48  58
ATOM     58  CB  THR A   2       5.366  -5.540  27.859  0.00  0.00    +0.141 C 
ATOM     59  CG2 THR A   2       4.956  -5.669  29.323  0.00  0.00    +0.040 C 
BRANCH  58  60
ATOM     60  OG1 THR A   2       6.185  -6.670  27.527  0.00  0.00    -0.390 OA
ATOM     61  HG1 THR A   2       5.644  -7.471  27.625  0.00  0.00    +0.210 HD
ENDBRANCH  58  60
ENDBRANCH  48  58
ENDBRANCH  44  48
ENDBRANCH  43  46
BRANCH  43  62
ATOM     62  CB  LEU A   3       3.998  -0.855  28.073  0.00  0.00    +0.034 C 
BRANCH  62  63
ATOM     63  CG  LEU A   3       2.590  -0.296  27.787  0.00  0.00    -0.015 C 
ATOM     64  CD2 LEU A   3       1.536  -1.358  28.114  0.00  0.00    +0.007 C 
ATOM     65  CD1 LEU A   3       2.299   0.973  28.591  0.00  0.00    +0.007 C 
ENDBRANCH  62  63
ENDBRANCH  43  62
ENDBRANCH  39  43
ENDBRANCH  38  40
BRANCH  38  66
ATOM     66  CB  GLN A   4       9.104  -2.452  26.268  0.00  0.00    +0.041 C 
BRANCH  66  67
ATOM     67  CG  GLN A   4       8.501  -3.801  26.651  0.00  0.00    +0.098 C 
BRANCH  67  68
ATOM     68  CD  GLN A   4       9.112  -4.898  25.811  0.00  0.00    +0.211 C 
ATOM     69  OE1 GLN A   4      10.151  -4.759  25.177  0.00  0.00    -0.276 OA
ATOM     70  NE2 GLN A   4       8.470  -6.099  25.864  0.00  0.00    -0.329 N 
ATOM     71 HE21 GLN A   4       7.490  -6.154  26.112  0.00  0.00    +0.145 HD
ATOM     72 HE22 GLN A   4       8.814  -6.808  25.229  0.00  0.00    +0.145 HD
ENDBRANCH  67  68
ENDBRANCH  66  67
ENDBRANCH  38  66
ENDBRANCH   1  38
TORSDOF 29
ENDMDL
MODEL 10
REMARK VINA RESULT:      -5.7      2.010      5.754
REMARK  Name = ATLQAENV-mmff94.pdb
REMARK  36 active torsions:
REMARK  status: ('A' for Active; 'I' for Inactive)
REMARK    1  A    between atoms: _1  and  _2
REMARK    2  A    between atoms: _2  and  _3
REMARK    3  A    between atoms: _2  and  _5
REMARK    4  A    between atoms: _11  and  _12
REMARK    5  A    between atoms: _12  and  _13
REMARK    6  A    between atoms: _12  and  _15
REMARK    7  A    between atoms: _15  and  _16
REMARK    8  A    between atoms: _15  and  _17
REMARK    9  A    between atoms: _25  and  _26
REMARK   10  A    between atoms: _26  and  _27
REMARK   11  A    between atoms: _26  and  _29
REMARK   12  A    between atoms: _29  and  _30
REMARK   13  A    between atoms: _30  and  _31
REMARK   14  A    between atoms: _30  and  _32
REMARK   15  A    between atoms: _44  and  _45
REMARK   16  A    between atoms: _45  and  _46
REMARK   17  A    between atoms: _45  and  _48
REMARK   18  A    between atoms: _48  and  _49
REMARK   19  A    between atoms: _49  and  _50
REMARK   20  A    between atoms: _61  and  _62
REMARK   21  A    between atoms: _62  and  _63
REMARK   22  A    between atoms: _62  and  _65
REMARK   23  A    between atoms: _71  and  _72
REMARK   24  A    between atoms: _72  and  _73
REMARK   25  A    between atoms: _72  and  _75
REMARK   26  A    between atoms: _75  and  _76
REMARK   27  A    between atoms: _76  and  _77
REMARK   28  A    between atoms: _86  and  _87
REMARK   29  A    between atoms: _87  and  _88
REMARK   30  A    between atoms: _87  and  _90
REMARK   31  A    between atoms: _90  and  _91
REMARK   32  A    between atoms: _100  and  _101
REMARK   33  A    between atoms: _101  and  _102
REMARK   34  A    between atoms: _101  and  _104
REMARK   35  A    between atoms: _104  and  _105
REMARK   36  A    between atoms: _104  and  _106
REMARK                            x       y       z     vdW  Elec       q    Type
REMARK                         _______ _______ _______ _____ _____    ______ ____
ROOT
ATOM      1  C   GLN A   4       8.248  -0.913  25.943  0.00  0.00    +0.234 C 
ATOM      2  O   GLN A   4       8.601  -0.597  27.081  0.00  0.00    -0.274 OA
ATOM      3  N   ALA A   5       7.080  -1.583  25.687  0.00  0.00    -0.303 N 
ATOM      4  H   ALA A   5       6.800  -1.817  24.737  0.00  0.00    +0.149 HD
ENDROOT
BRANCH   3   5
ATOM      5  CA  ALA A   5       6.177  -2.026  26.743  0.00  0.00    +0.156 C 
ATOM      6  CB  ALA A   5       4.729  -2.050  26.271  0.00  0.00    +0.038 C 
BRANCH   5   7
ATOM      7  C   ALA A   5       6.615  -3.437  27.176  0.00  0.00    +0.234 C 
ATOM      8  N   GLU A   6       5.691  -4.108  27.933  0.00  0.00    -0.302 N 
ATOM      9  H   GLU A   6       4.874  -3.623  28.289  0.00  0.00    +0.150 HD
ATOM     10  O   ALA A   5       7.692  -3.916  26.823  0.00  0.00    -0.274 OA
BRANCH   8  11
ATOM     11  CA  GLU A   6       5.931  -5.435  28.504  0.00  0.00    +0.159 C 
BRANCH  11  12
ATOM     12  C   GLU A   6       5.270  -6.419  27.520  0.00  0.00    +0.234 C 
ATOM     13  O   GLU A   6       5.365  -7.643  27.650  0.00  0.00    -0.274 OA
ATOM     14  N   ASN A   7       4.569  -5.852  26.485  0.00  0.00    -0.302 N 
ATOM     15  H   ASN A   7       4.624  -4.843  26.347  0.00  0.00    +0.150 HD
BRANCH  14  16
ATOM     16  CA  ASN A   7       4.063  -6.632  25.357  0.00  0.00    +0.168 C 
BRANCH  16  17
ATOM     17  C   ASN A   7       4.129  -5.719  24.121  0.00  0.00    +0.234 C 
ATOM     18  N   VAL A   8       5.287  -5.814  23.388  0.00  0.00    -0.304 N 
ATOM     19  H   VAL A   8       6.026  -6.450  23.669  0.00  0.00    +0.149 HD
ATOM     20  O   ASN A   7       3.187  -5.000  23.794  0.00  0.00    -0.274 OA
BRANCH  18  21
ATOM     21  CA  VAL A   8       5.507  -5.051  22.163  0.00  0.00    +0.138 C 
BRANCH  21  22
ATOM     22  CB  VAL A   8       6.443  -3.842  22.373  0.00  0.00    +0.010 C 
ATOM     23  CG2 VAL A   8       7.577  -4.162  23.353  0.00  0.00    +0.009 C 
ATOM     24  CG1 VAL A   8       5.677  -2.618  22.888  0.00  0.00    +0.009 C 
ENDBRANCH  21  22
BRANCH  21  25
ATOM     25  C   VAL A   8       6.106  -6.043  21.168  0.00  0.00    +0.245 C 
ATOM     26  O   VAL A   8       5.981  -5.955  19.946  0.00  0.00    -0.299 OA
ENDBRANCH  21  25
ENDBRANCH  18  21
ENDBRANCH  16  17
BRANCH  16  27
ATOM     27  CB  ASN A   7       2.610  -7.070  25.531  0.00  0.00    +0.127 C 
BRANCH  27  28
ATOM     28  CG  ASN A   7       2.143  -8.314  24.809  0.00  0.00    +0.213 C 
ATOM     29  OD1 ASN A   7       1.966  -8.318  23.591  0.00  0.00    -0.276 OA
ATOM     30  ND2 ASN A   7       2.017  -9.474  25.502  0.00  0.00    -0.329 N 
ATOM     31 HD21 ASN A   7       1.630 -10.231  24.953  0.00  0.00    +0.145 HD
ATOM     32 HD22 ASN A   7       1.611  -9.431  26.440  0.00  0.00    +0.145 HD
ENDBRANCH  27  28
ENDBRANCH  16  27
ENDBRANCH  14  16
ENDBRANCH  11  12
BRANCH  11  33
ATOM     33  CB  GLU A   6       5.299  -5.539  29.894  0.00  0.00    +0.037 C 
BRANCH  33  34
ATOM     34  CG  GLU A   6       4.188  -4.522  30.141  0.00  0.00    +0.054 C 
BRANCH  34  35
ATOM     35  CD  GLU A   6       2.833  -4.922  29.552  0.00  0.00    +0.042 C 
ATOM     36  OE2 GLU A   6       2.199  -5.761  30.253  0.00  0.00    -0.550 OA
ATOM     37  OE1 GLU A   6       2.522  -4.395  28.450  0.00  0.00    -0.550 OA
ENDBRANCH  34  35
ENDBRANCH  33  34
ENDBRANCH  11  33
ENDBRANCH   8  11
ENDBRANCH   5   7
ENDBRANCH   3   5
BRANCH   1  38
ATOM     38  CA  GLN A   4       9.121  -0.609  24.713  0.00  0.00    +0.159 C 
BRANCH  38  40
ATOM     39  C   LEU A   3       8.250  -0.385  22.390  0.00  0.00    +0.234 C 
ATOM     40  N   GLN A   4       8.219  -0.030  23.715  0.00  0.00    -0.302 N 
ATOM     41  H   GLN A   4       7.608   0.714  24.042  0.00  0.00    +0.150 HD
ATOM     42  O   LEU A   3       9.004  -1.249  21.944  0.00  0.00    -0.274 OA
BRANCH  39  43
ATOM     43  CA  LEU A   3       7.234   0.354  21.494  0.00  0.00    +0.159 C 
BRANCH  43  46
ATOM     44  C   THR A   2       5.995   2.504  21.707  0.00  0.00    +0.236 C 
ATOM     45  O   THR A   2       5.366   2.336  20.663  0.00  0.00    -0.274 OA
ATOM     46  N   LEU A   3       6.955   1.628  22.151  0.00  0.00    -0.302 N 
ATOM     47  H   LEU A   3       7.361   1.745  23.076  0.00  0.00    +0.150 HD
BRANCH  44  48
ATOM     48  CA  THR A   2       5.735   3.707  22.623  0.00  0.00    +0.187 C 
BRANCH  48  50
ATOM     49  C   ALA A   1       4.568   2.767  24.609  0.00  0.00    +0.230 C 
ATOM     50  N   THR A   2       5.724   3.172  23.988  0.00  0.00    -0.301 N 
ATOM     51  H   THR A   2       6.599   3.210  24.499  0.00  0.00    +0.150 HD
ATOM     52  O   ALA A   1       3.476   2.706  24.047  0.00  0.00    -0.274 OA
BRANCH  49  53
ATOM     53  CA  ALA A   1       4.757   2.352  26.082  0.00  0.00    +0.135 C 
ATOM     54  CB  ALA A   1       6.207   1.954  26.317  0.00  0.00    +0.033 C 
BRANCH  53  55
ATOM     55  N   ALA A   1       3.860   1.222  26.399  0.00  0.00    -0.320 NA
ATOM     56  H1  ALA A   1       3.224   1.105  25.607  0.00  0.00    +0.119 HD
ATOM     57  H2  ALA A   1       4.434   0.373  26.366  0.00  0.00    +0.119 HD
ENDBRANCH  53  55
ENDBRANCH  49  53
ENDBRANCH  48  50
BRANCH  48  58
ATOM     58  CB  THR A   2       6.863   4.750  22.430  0.00  0.00    +0.141 C 
ATOM     59  CG2 THR A   2       7.213   5.479  23.725  0.00  0.00    +0.040 C 
BRANCH  58  60
ATOM     60  OG1 THR A   2       8.053   4.114  21.943  0.00  0.00    -0.390 OA
ATOM     61  HG1 THR A   2       8.335   3.461  22.605  0.00  0.00    +0.210 HD
ENDBRANCH  58  60
ENDBRANCH  48  58
ENDBRANCH  44  48
ENDBRANCH  43  46
BRANCH  43  62
ATOM     62  CB  LEU A   3       7.833   0.553  20.093  0.00  0.00    +0.034 C 
BRANCH  62  63
ATOM     63  CG  LEU A   3       7.048  -0.119  18.949  0.00  0.00    -0.015 C 
ATOM     64  CD2 LEU A   3       5.918  -0.975  19.530  0.00  0.00    +0.007 C 
ATOM     65  CD1 LEU A   3       6.461   0.903  17.975  0.00  0.00    +0.007 C 
ENDBRANCH  62  63
ENDBRANCH  43  62
ENDBRANCH  39  43
ENDBRANCH  38  40
BRANCH  38  66
ATOM     66  CB  GLN A   4      10.245   0.376  25.057  0.00  0.00    +0.041 C 
BRANCH  66  67
ATOM     67  CG  GLN A   4      10.733   1.190  23.861  0.00  0.00    +0.098 C 
BRANCH  67  68
ATOM     68  CD  GLN A   4      10.073   2.548  23.856  0.00  0.00    +0.211 C 
ATOM     69  OE1 GLN A   4       9.014   2.784  24.426  0.00  0.00    -0.276 OA
ATOM     70  NE2 GLN A   4      10.777   3.535  23.233  0.00  0.00    -0.329 N 
ATOM     71 HE21 GLN A   4      11.462   3.315  22.520  0.00  0.00    +0.145 HD
ATOM     72 HE22 GLN A   4      10.298   4.422  23.138  0.00  0.00    +0.145 HD
ENDBRANCH  67  68
ENDBRANCH  66  67
ENDBRANCH  38  66
ENDBRANCH   1  38
TORSDOF 29
ENDMDL
MODEL 11
REMARK VINA RESULT:      -5.7      2.190      7.624
REMARK  Name = ATLQAENV-mmff94.pdb
REMARK  36 active torsions:
REMARK  status: ('A' for Active; 'I' for Inactive)
REMARK    1  A    between atoms: _1  and  _2
REMARK    2  A    between atoms: _2  and  _3
REMARK    3  A    between atoms: _2  and  _5
REMARK    4  A    between atoms: _11  and  _12
REMARK    5  A    between atoms: _12  and  _13
REMARK    6  A    between atoms: _12  and  _15
REMARK    7  A    between atoms: _15  and  _16
REMARK    8  A    between atoms: _15  and  _17
REMARK    9  A    between atoms: _25  and  _26
REMARK   10  A    between atoms: _26  and  _27
REMARK   11  A    between atoms: _26  and  _29
REMARK   12  A    between atoms: _29  and  _30
REMARK   13  A    between atoms: _30  and  _31
REMARK   14  A    between atoms: _30  and  _32
REMARK   15  A    between atoms: _44  and  _45
REMARK   16  A    between atoms: _45  and  _46
REMARK   17  A    between atoms: _45  and  _48
REMARK   18  A    between atoms: _48  and  _49
REMARK   19  A    between atoms: _49  and  _50
REMARK   20  A    between atoms: _61  and  _62
REMARK   21  A    between atoms: _62  and  _63
REMARK   22  A    between atoms: _62  and  _65
REMARK   23  A    between atoms: _71  and  _72
REMARK   24  A    between atoms: _72  and  _73
REMARK   25  A    between atoms: _72  and  _75
REMARK   26  A    between atoms: _75  and  _76
REMARK   27  A    between atoms: _76  and  _77
REMARK   28  A    between atoms: _86  and  _87
REMARK   29  A    between atoms: _87  and  _88
REMARK   30  A    between atoms: _87  and  _90
REMARK   31  A    between atoms: _90  and  _91
REMARK   32  A    between atoms: _100  and  _101
REMARK   33  A    between atoms: _101  and  _102
REMARK   34  A    between atoms: _101  and  _104
REMARK   35  A    between atoms: _104  and  _105
REMARK   36  A    between atoms: _104  and  _106
REMARK                            x       y       z     vdW  Elec       q    Type
REMARK                         _______ _______ _______ _____ _____    ______ ____
ROOT
ATOM      1  C   GLN A   4       6.644  -1.533  21.187  0.00  0.00    +0.234 C 
ATOM      2  O   GLN A   4       5.679  -2.031  20.605  0.00  0.00    -0.274 OA
ATOM      3  N   ALA A   5       7.238  -0.367  20.779  0.00  0.00    -0.303 N 
ATOM      4  H   ALA A   5       8.023   0.034  21.286  0.00  0.00    +0.149 HD
ENDROOT
BRANCH   3   5
ATOM      5  CA  ALA A   5       6.811   0.360  19.589  0.00  0.00    +0.156 C 
ATOM      6  CB  ALA A   5       6.041  -0.537  18.628  0.00  0.00    +0.038 C 
BRANCH   5   7
ATOM      7  C   ALA A   5       5.921   1.530  20.046  0.00  0.00    +0.234 C 
ATOM      8  N   GLU A   6       6.359   2.164  21.179  0.00  0.00    -0.302 N 
ATOM      9  H   GLU A   6       7.116   1.767  21.726  0.00  0.00    +0.150 HD
ATOM     10  O   ALA A   5       4.927   1.874  19.407  0.00  0.00    -0.274 OA
BRANCH   8  11
ATOM     11  CA  GLU A   6       5.628   3.258  21.821  0.00  0.00    +0.159 C 
BRANCH  11  12
ATOM     12  C   GLU A   6       6.715   4.177  22.409  0.00  0.00    +0.234 C 
ATOM     13  O   GLU A   6       6.878   5.337  22.018  0.00  0.00    -0.274 OA
ATOM     14  N   ASN A   7       7.498   3.626  23.393  0.00  0.00    -0.302 N 
ATOM     15  H   ASN A   7       7.411   2.630  23.592  0.00  0.00    +0.150 HD
BRANCH  14  16
ATOM     16  CA  ASN A   7       8.699   4.285  23.903  0.00  0.00    +0.168 C 
BRANCH  16  17
ATOM     17  C   ASN A   7       9.851   3.273  23.769  0.00  0.00    +0.234 C 
ATOM     18  N   VAL A   8       9.499   1.961  23.972  0.00  0.00    -0.304 N 
ATOM     19  H   VAL A   8       8.541   1.711  24.193  0.00  0.00    +0.149 HD
ATOM     20  O   ASN A   7      10.987   3.621  23.452  0.00  0.00    -0.274 OA
BRANCH  18  21
ATOM     21  CA  VAL A   8      10.453   0.863  23.848  0.00  0.00    +0.138 C 
BRANCH  21  22
ATOM     22  CB  VAL A   8      10.292  -0.196  24.959  0.00  0.00    +0.010 C 
ATOM     23  CG2 VAL A   8       9.883  -1.561  24.392  0.00  0.00    +0.009 C 
ATOM     24  CG1 VAL A   8       9.254   0.234  26.003  0.00  0.00    +0.009 C 
ENDBRANCH  21  22
BRANCH  21  25
ATOM     25  C   VAL A   8      10.198   0.255  22.470  0.00  0.00    +0.245 C 
ATOM     26  O   VAL A   8       9.702   0.870  21.526  0.00  0.00    -0.299 OA
ENDBRANCH  21  25
ENDBRANCH  18  21
ENDBRANCH  16  17
BRANCH  16  27
ATOM     27  CB  ASN A   7       8.593   4.672  25.376  0.00  0.00    +0.127 C 
BRANCH  27  28
ATOM     28  CG  ASN A   7       7.365   4.241  26.146  0.00  0.00    +0.213 C 
ATOM     29  OD1 ASN A   7       6.243   4.646  25.841  0.00  0.00    -0.276 OA
ATOM     30  ND2 ASN A   7       7.490   3.308  27.125  0.00  0.00    -0.329 N 
ATOM     31 HD21 ASN A   7       6.630   3.139  27.631  0.00  0.00    +0.145 HD
ATOM     32 HD22 ASN A   7       8.299   3.373  27.748  0.00  0.00    +0.145 HD
ENDBRANCH  27  28
ENDBRANCH  16  27
ENDBRANCH  14  16
ENDBRANCH  11  12
BRANCH  11  33
ATOM     33  CB  GLU A   6       4.714   2.714  22.923  0.00  0.00    +0.037 C 
BRANCH  33  34
ATOM     34  CG  GLU A   6       3.493   3.590  23.195  0.00  0.00    +0.054 C 
BRANCH  34  35
ATOM     35  CD  GLU A   6       2.326   3.349  22.234  0.00  0.00    +0.042 C 
ATOM     36  OE2 GLU A   6       2.378   4.048  21.182  0.00  0.00    -0.550 OA
ATOM     37  OE1 GLU A   6       1.457   2.514  22.605  0.00  0.00    -0.550 OA
ENDBRANCH  34  35
ENDBRANCH  33  34
ENDBRANCH  11  33
ENDBRANCH   8  11
ENDBRANCH   5   7
ENDBRANCH   3   5
BRANCH   1  38
ATOM     38  CA  GLN A   4       7.289  -2.212  22.408  0.00  0.00    +0.159 C 
BRANCH  38  40
ATOM     39  C   LEU A   3       6.258  -0.703  24.100  0.00  0.00    +0.234 C 
ATOM     40  N   GLN A   4       6.392  -1.946  23.534  0.00  0.00    -0.302 N 
ATOM     41  H   GLN A   4       5.921  -2.754  23.932  0.00  0.00    +0.150 HD
ATOM     42  O   LEU A   3       6.844   0.293  23.678  0.00  0.00    -0.274 OA
BRANCH  39  43
ATOM     43  CA  LEU A   3       5.280  -0.632  25.291  0.00  0.00    +0.159 C 
BRANCH  43  46
ATOM     44  C   THR A   2       4.234  -2.752  26.072  0.00  0.00    +0.236 C 
ATOM     45  O   THR A   2       3.100  -2.408  25.739  0.00  0.00    -0.274 OA
ATOM     46  N   LEU A   3       5.331  -1.936  25.945  0.00  0.00    -0.302 N 
ATOM     47  H   LEU A   3       6.262  -2.305  26.120  0.00  0.00    +0.150 HD
BRANCH  44  48
ATOM     48  CA  THR A   2       4.521  -4.149  26.638  0.00  0.00    +0.187 C 
BRANCH  48  50
ATOM     49  C   ALA A   1       3.246  -6.131  25.843  0.00  0.00    +0.230 C 
ATOM     50  N   THR A   2       4.108  -5.092  25.595  0.00  0.00    -0.301 N 
ATOM     51  H   THR A   2       4.571  -5.009  24.697  0.00  0.00    +0.150 HD
ATOM     52  O   ALA A   1       2.659  -6.292  26.912  0.00  0.00    -0.274 OA
BRANCH  49  53
ATOM     53  CA  ALA A   1       3.036  -7.077  24.643  0.00  0.00    +0.135 C 
ATOM     54  CB  ALA A   1       2.231  -8.290  25.085  0.00  0.00    +0.033 C 
BRANCH  53  55
ATOM     55  N   ALA A   1       4.347  -7.500  24.109  0.00  0.00    -0.320 NA
ATOM     56  H1  ALA A   1       4.458  -8.494  24.321  0.00  0.00    +0.119 HD
ATOM     57  H2  ALA A   1       4.266  -7.487  23.087  0.00  0.00    +0.119 HD
ENDBRANCH  53  55
ENDBRANCH  49  53
ENDBRANCH  48  50
BRANCH  48  58
ATOM     58  CB  THR A   2       6.032  -4.273  26.952  0.00  0.00    +0.141 C 
ATOM     59  CG2 THR A   2       6.360  -5.524  27.764  0.00  0.00    +0.040 C 
BRANCH  58  60
ATOM     60  OG1 THR A   2       6.792  -4.321  25.737  0.00  0.00    -0.390 OA
ATOM     61  HG1 THR A   2       7.514  -4.961  25.860  0.00  0.00    +0.210 HD
ENDBRANCH  58  60
ENDBRANCH  48  58
ENDBRANCH  44  48
ENDBRANCH  43  46
BRANCH  43  62
ATOM     62  CB  LEU A   3       5.704   0.500  26.238  0.00  0.00    +0.034 C 
BRANCH  62  63
ATOM     63  CG  LEU A   3       4.769   0.725  27.443  0.00  0.00    -0.015 C 
ATOM     64  CD2 LEU A   3       5.574   0.648  28.744  0.00  0.00    +0.007 C 
ATOM     65  CD1 LEU A   3       4.049   2.072  27.371  0.00  0.00    +0.007 C 
ENDBRANCH  62  63
ENDBRANCH  43  62
ENDBRANCH  39  43
ENDBRANCH  38  40
BRANCH  38  66
ATOM     66  CB  GLN A   4       7.442  -3.723  22.189  0.00  0.00    +0.041 C 
BRANCH  66  67
ATOM     67  CG  GLN A   4       6.139  -4.500  22.360  0.00  0.00    +0.098 C 
BRANCH  67  68
ATOM     68  CD  GLN A   4       6.083  -5.640  21.370  0.00  0.00    +0.211 C 
ATOM     69  OE1 GLN A   4       5.956  -5.476  20.163  0.00  0.00    -0.276 OA
ATOM     70  NE2 GLN A   4       6.264  -6.881  21.902  0.00  0.00    -0.329 N 
ATOM     71 HE21 GLN A   4       6.065  -7.064  22.877  0.00  0.00    +0.145 HD
ATOM     72 HE22 GLN A   4       6.129  -7.655  21.263  0.00  0.00    +0.145 HD
ENDBRANCH  67  68
ENDBRANCH  66  67
ENDBRANCH  38  66
ENDBRANCH   1  38
TORSDOF 29
ENDMDL
MODEL 12
REMARK VINA RESULT:      -5.7      2.323      7.918
REMARK  Name = ATLQAENV-mmff94.pdb
REMARK  36 active torsions:
REMARK  status: ('A' for Active; 'I' for Inactive)
REMARK    1  A    between atoms: _1  and  _2
REMARK    2  A    between atoms: _2  and  _3
REMARK    3  A    between atoms: _2  and  _5
REMARK    4  A    between atoms: _11  and  _12
REMARK    5  A    between atoms: _12  and  _13
REMARK    6  A    between atoms: _12  and  _15
REMARK    7  A    between atoms: _15  and  _16
REMARK    8  A    between atoms: _15  and  _17
REMARK    9  A    between atoms: _25  and  _26
REMARK   10  A    between atoms: _26  and  _27
REMARK   11  A    between atoms: _26  and  _29
REMARK   12  A    between atoms: _29  and  _30
REMARK   13  A    between atoms: _30  and  _31
REMARK   14  A    between atoms: _30  and  _32
REMARK   15  A    between atoms: _44  and  _45
REMARK   16  A    between atoms: _45  and  _46
REMARK   17  A    between atoms: _45  and  _48
REMARK   18  A    between atoms: _48  and  _49
REMARK   19  A    between atoms: _49  and  _50
REMARK   20  A    between atoms: _61  and  _62
REMARK   21  A    between atoms: _62  and  _63
REMARK   22  A    between atoms: _62  and  _65
REMARK   23  A    between atoms: _71  and  _72
REMARK   24  A    between atoms: _72  and  _73
REMARK   25  A    between atoms: _72  and  _75
REMARK   26  A    between atoms: _75  and  _76
REMARK   27  A    between atoms: _76  and  _77
REMARK   28  A    between atoms: _86  and  _87
REMARK   29  A    between atoms: _87  and  _88
REMARK   30  A    between atoms: _87  and  _90
REMARK   31  A    between atoms: _90  and  _91
REMARK   32  A    between atoms: _100  and  _101
REMARK   33  A    between atoms: _101  and  _102
REMARK   34  A    between atoms: _101  and  _104
REMARK   35  A    between atoms: _104  and  _105
REMARK   36  A    between atoms: _104  and  _106
REMARK                            x       y       z     vdW  Elec       q    Type
REMARK                         _______ _______ _______ _____ _____    ______ ____
ROOT
ATOM      1  C   GLN A   4       8.841  -1.804  25.370  0.00  0.00    +0.234 C 
ATOM      2  O   GLN A   4       8.852  -1.410  26.538  0.00  0.00    -0.274 OA
ATOM      3  N   ALA A   5       9.174  -1.001  24.311  0.00  0.00    -0.303 N 
ATOM      4  H   ALA A   5       9.175  -1.354  23.357  0.00  0.00    +0.149 HD
ENDROOT
BRANCH   3   5
ATOM      5  CA  ALA A   5       9.522   0.407  24.469  0.00  0.00    +0.156 C 
ATOM      6  CB  ALA A   5      10.969   0.581  24.915  0.00  0.00    +0.038 C 
BRANCH   5   7
ATOM      7  C   ALA A   5       9.300   1.102  23.114  0.00  0.00    +0.234 C 
ATOM      8  N   GLU A   6       8.014   1.031  22.646  0.00  0.00    -0.302 N 
ATOM      9  H   GLU A   6       7.337   0.428  23.103  0.00  0.00    +0.150 HD
ATOM     10  O   ALA A   5      10.208   1.701  22.539  0.00  0.00    -0.274 OA
BRANCH   8  11
ATOM     11  CA  GLU A   6       7.600   1.567  21.348  0.00  0.00    +0.159 C 
BRANCH  11  12
ATOM     12  C   GLU A   6       6.672   2.751  21.682  0.00  0.00    +0.234 C 
ATOM     13  O   GLU A   6       7.110   3.859  22.007  0.00  0.00    -0.274 OA
ATOM     14  N   ASN A   7       5.326   2.498  21.599  0.00  0.00    -0.302 N 
ATOM     15  H   ASN A   7       5.012   1.539  21.452  0.00  0.00    +0.150 HD
BRANCH  14  16
ATOM     16  CA  ASN A   7       4.318   3.441  22.082  0.00  0.00    +0.168 C 
BRANCH  16  17
ATOM     17  C   ASN A   7       4.326   3.351  23.618  0.00  0.00    +0.234 C 
ATOM     18  N   VAL A   8       4.953   4.391  24.259  0.00  0.00    -0.304 N 
ATOM     19  H   VAL A   8       5.371   5.148  23.729  0.00  0.00    +0.149 HD
ATOM     20  O   ASN A   7       3.763   2.436  24.217  0.00  0.00    -0.274 OA
BRANCH  18  21
ATOM     21  CA  VAL A   8       5.022   4.491  25.714  0.00  0.00    +0.138 C 
BRANCH  21  22
ATOM     22  CB  VAL A   8       6.347   5.111  26.207  0.00  0.00    +0.010 C 
ATOM     23  CG2 VAL A   8       7.561   4.505  25.493  0.00  0.00    +0.009 C 
ATOM     24  CG1 VAL A   8       6.525   4.932  27.720  0.00  0.00    +0.009 C 
ENDBRANCH  21  22
BRANCH  21  25
ATOM     25  C   VAL A   8       3.829   5.352  26.121  0.00  0.00    +0.245 C 
ATOM     26  O   VAL A   8       3.096   5.107  27.079  0.00  0.00    -0.299 OA
ENDBRANCH  21  25
ENDBRANCH  18  21
ENDBRANCH  16  17
BRANCH  16  27
ATOM     27  CB  ASN A   7       2.905   3.107  21.607  0.00  0.00    +0.127 C 
BRANCH  27  28
ATOM     28  CG  ASN A   7       2.676   2.894  20.127  0.00  0.00    +0.213 C 
ATOM     29  OD1 ASN A   7       1.732   3.425  19.542  0.00  0.00    -0.276 OA
ATOM     30  ND2 ASN A   7       3.590   2.190  19.410  0.00  0.00    -0.329 N 
ATOM     31 HD21 ASN A   7       3.315   2.038  18.448  0.00  0.00    +0.145 HD
ATOM     32 HD22 ASN A   7       3.988   1.349  19.836  0.00  0.00    +0.145 HD
ENDBRANCH  27  28
ENDBRANCH  16  27
ENDBRANCH  14  16
ENDBRANCH  11  12
BRANCH  11  33
ATOM     33  CB  GLU A   6       6.859   0.498  20.541  0.00  0.00    +0.037 C 
BRANCH  33  34
ATOM     34  CG  GLU A   6       7.457   0.249  19.159  0.00  0.00    +0.054 C 
BRANCH  34  35
ATOM     35  CD  GLU A   6       6.420   0.170  18.035  0.00  0.00    +0.042 C 
ATOM     36  OE2 GLU A   6       6.101   1.295  17.556  0.00  0.00    -0.550 OA
ATOM     37  OE1 GLU A   6       6.000  -0.981  17.740  0.00  0.00    -0.550 OA
ENDBRANCH  34  35
ENDBRANCH  33  34
ENDBRANCH  11  33
ENDBRANCH   8  11
ENDBRANCH   5   7
ENDBRANCH   3   5
BRANCH   1  38
ATOM     38  CA  GLN A   4       8.409  -3.236  25.005  0.00  0.00    +0.159 C 
BRANCH  38  40
ATOM     39  C   LEU A   3       6.712  -4.064  26.629  0.00  0.00    +0.234 C 
ATOM     40  N   GLN A   4       7.033  -3.374  25.487  0.00  0.00    -0.302 N 
ATOM     41  H   GLN A   4       6.308  -2.991  24.887  0.00  0.00    +0.150 HD
ATOM     42  O   LEU A   3       7.555  -4.580  27.361  0.00  0.00    -0.274 OA
BRANCH  39  43
ATOM     43  CA  LEU A   3       5.205  -4.114  26.957  0.00  0.00    +0.159 C 
BRANCH  43  46
ATOM     44  C   THR A   2       3.814  -2.443  28.171  0.00  0.00    +0.236 C 
ATOM     45  O   THR A   2       3.111  -3.300  28.707  0.00  0.00    -0.274 OA
ATOM     46  N   LEU A   3       4.806  -2.745  27.271  0.00  0.00    -0.302 N 
ATOM     47  H   LEU A   3       5.438  -2.016  26.948  0.00  0.00    +0.150 HD
BRANCH  44  48
ATOM     48  CA  THR A   2       3.654  -0.950  28.490  0.00  0.00    +0.187 C 
BRANCH  48  50
ATOM     49  C   ALA A   1       5.585   0.598  28.734  0.00  0.00    +0.230 C 
ATOM     50  N   THR A   2       4.869  -0.305  27.987  0.00  0.00    -0.301 N 
ATOM     51  H   THR A   2       5.105  -0.473  27.015  0.00  0.00    +0.150 HD
ATOM     52  O   ALA A   1       5.346   0.852  29.913  0.00  0.00    -0.274 OA
BRANCH  49  53
ATOM     53  CA  ALA A   1       6.759   1.252  27.976  0.00  0.00    +0.135 C 
ATOM     54  CB  ALA A   1       6.531   1.125  26.476  0.00  0.00    +0.033 C 
BRANCH  53  55
ATOM     55  N   ALA A   1       8.025   0.595  28.358  0.00  0.00    -0.320 NA
ATOM     56  H1  ALA A   1       7.868   0.123  29.251  0.00  0.00    +0.119 HD
ATOM     57  H2  ALA A   1       8.161  -0.183  27.704  0.00  0.00    +0.119 HD
ENDBRANCH  53  55
ENDBRANCH  49  53
ENDBRANCH  48  50
BRANCH  48  58
ATOM     58  CB  THR A   2       2.387  -0.409  27.784  0.00  0.00    +0.141 C 
ATOM     59  CG2 THR A   2       2.573   1.012  27.259  0.00  0.00    +0.040 C 
BRANCH  58  60
ATOM     60  OG1 THR A   2       2.036  -1.249  26.675  0.00  0.00    -0.390 OA
ATOM     61  HG1 THR A   2       2.795  -1.275  26.068  0.00  0.00    +0.210 HD
ENDBRANCH  58  60
ENDBRANCH  48  58
ENDBRANCH  44  48
ENDBRANCH  43  46
BRANCH  43  62
ATOM     62  CB  LEU A   3       4.434  -4.672  25.752  0.00  0.00    +0.034 C 
BRANCH  62  63
ATOM     63  CG  LEU A   3       4.060  -6.164  25.853  0.00  0.00    -0.015 C 
ATOM     64  CD2 LEU A   3       4.598  -6.916  24.632  0.00  0.00    +0.007 C 
ATOM     65  CD1 LEU A   3       4.605  -6.810  27.128  0.00  0.00    +0.007 C 
ENDBRANCH  62  63
ENDBRANCH  43  62
ENDBRANCH  39  43
ENDBRANCH  38  40
BRANCH  38  66
ATOM     66  CB  GLN A   4       8.472  -3.466  23.489  0.00  0.00    +0.041 C 
BRANCH  66  67
ATOM     67  CG  GLN A   4       7.137  -3.885  22.879  0.00  0.00    +0.098 C 
BRANCH  67  68
ATOM     68  CD  GLN A   4       6.390  -2.668  22.386  0.00  0.00    +0.211 C 
ATOM     69  OE1 GLN A   4       6.370  -1.601  22.987  0.00  0.00    -0.276 OA
ATOM     70  NE2 GLN A   4       5.791  -2.806  21.169  0.00  0.00    -0.329 N 
ATOM     71 HE21 GLN A   4       5.536  -3.719  20.815  0.00  0.00    +0.145 HD
ATOM     72 HE22 GLN A   4       5.207  -2.032  20.878  0.00  0.00    +0.145 HD
ENDBRANCH  67  68
ENDBRANCH  66  67
ENDBRANCH  38  66
ENDBRANCH   1  38
TORSDOF 29
ENDMDL
MODEL 13
REMARK VINA RESULT:      -5.7      1.814      4.079
REMARK  Name = ATLQAENV-mmff94.pdb
REMARK  36 active torsions:
REMARK  status: ('A' for Active; 'I' for Inactive)
REMARK    1  A    between atoms: _1  and  _2
REMARK    2  A    between atoms: _2  and  _3
REMARK    3  A    between atoms: _2  and  _5
REMARK    4  A    between atoms: _11  and  _12
REMARK    5  A    between atoms: _12  and  _13
REMARK    6  A    between atoms: _12  and  _15
REMARK    7  A    between atoms: _15  and  _16
REMARK    8  A    between atoms: _15  and  _17
REMARK    9  A    between atoms: _25  and  _26
REMARK   10  A    between atoms: _26  and  _27
REMARK   11  A    between atoms: _26  and  _29
REMARK   12  A    between atoms: _29  and  _30
REMARK   13  A    between atoms: _30  and  _31
REMARK   14  A    between atoms: _30  and  _32
REMARK   15  A    between atoms: _44  and  _45
REMARK   16  A    between atoms: _45  and  _46
REMARK   17  A    between atoms: _45  and  _48
REMARK   18  A    between atoms: _48  and  _49
REMARK   19  A    between atoms: _49  and  _50
REMARK   20  A    between atoms: _61  and  _62
REMARK   21  A    between atoms: _62  and  _63
REMARK   22  A    between atoms: _62  and  _65
REMARK   23  A    between atoms: _71  and  _72
REMARK   24  A    between atoms: _72  and  _73
REMARK   25  A    between atoms: _72  and  _75
REMARK   26  A    between atoms: _75  and  _76
REMARK   27  A    between atoms: _76  and  _77
REMARK   28  A    between atoms: _86  and  _87
REMARK   29  A    between atoms: _87  and  _88
REMARK   30  A    between atoms: _87  and  _90
REMARK   31  A    between atoms: _90  and  _91
REMARK   32  A    between atoms: _100  and  _101
REMARK   33  A    between atoms: _101  and  _102
REMARK   34  A    between atoms: _101  and  _104
REMARK   35  A    between atoms: _104  and  _105
REMARK   36  A    between atoms: _104  and  _106
REMARK                            x       y       z     vdW  Elec       q    Type
REMARK                         _______ _______ _______ _____ _____    ______ ____
ROOT
ATOM      1  C   GLN A   4       6.856  -0.649  21.102  0.00  0.00    +0.234 C 
ATOM      2  O   GLN A   4       6.542  -0.840  19.926  0.00  0.00    -0.274 OA
ATOM      3  N   ALA A   5       6.658  -1.582  22.085  0.00  0.00    -0.303 N 
ATOM      4  H   ALA A   5       6.942  -1.408  23.047  0.00  0.00    +0.149 HD
ENDROOT
BRANCH   3   5
ATOM      5  CA  ALA A   5       6.011  -2.865  21.835  0.00  0.00    +0.156 C 
ATOM      6  CB  ALA A   5       7.029  -3.956  21.524  0.00  0.00    +0.038 C 
BRANCH   5   7
ATOM      7  C   ALA A   5       5.204  -3.239  23.091  0.00  0.00    +0.234 C 
ATOM      8  N   GLU A   6       4.457  -4.380  22.965  0.00  0.00    -0.302 N 
ATOM      9  H   GLU A   6       4.349  -4.821  22.057  0.00  0.00    +0.150 HD
ATOM     10  O   ALA A   5       5.273  -2.574  24.125  0.00  0.00    -0.274 OA
BRANCH   8  11
ATOM     11  CA  GLU A   6       3.567  -4.879  24.015  0.00  0.00    +0.159 C 
BRANCH  11  12
ATOM     12  C   GLU A   6       4.500  -5.305  25.163  0.00  0.00    +0.234 C 
ATOM     13  O   GLU A   6       5.383  -6.155  25.012  0.00  0.00    -0.274 OA
ATOM     14  N   ASN A   7       4.289  -4.685  26.369  0.00  0.00    -0.302 N 
ATOM     15  H   ASN A   7       3.471  -4.087  26.479  0.00  0.00    +0.150 HD
BRANCH  14  16
ATOM     16  CA  ASN A   7       4.941  -5.122  27.603  0.00  0.00    +0.168 C 
BRANCH  16  17
ATOM     17  C   ASN A   7       6.448  -4.868  27.422  0.00  0.00    +0.234 C 
ATOM     18  N   VAL A   8       6.767  -3.756  26.682  0.00  0.00    -0.304 N 
ATOM     19  H   VAL A   8       6.037  -3.165  26.296  0.00  0.00    +0.149 HD
ATOM     20  O   ASN A   7       7.295  -5.586  27.951  0.00  0.00    -0.274 OA
BRANCH  18  21
ATOM     21  CA  VAL A   8       8.145  -3.339  26.441  0.00  0.00    +0.138 C 
BRANCH  21  22
ATOM     22  CB  VAL A   8       8.707  -3.877  25.108  0.00  0.00    +0.010 C 
ATOM     23  CG2 VAL A   8       9.701  -5.023  25.327  0.00  0.00    +0.009 C 
ATOM     24  CG1 VAL A   8       9.399  -2.772  24.301  0.00  0.00    +0.009 C 
ENDBRANCH  21  22
BRANCH  21  25
ATOM     25  C   VAL A   8       8.117  -1.813  26.449  0.00  0.00    +0.245 C 
ATOM     26  O   VAL A   8       7.086  -1.142  26.491  0.00  0.00    -0.299 OA
ENDBRANCH  21  25
ENDBRANCH  18  21
ENDBRANCH  16  17
BRANCH  16  27
ATOM     27  CB  ASN A   7       4.755  -6.611  27.887  0.00  0.00    +0.127 C 
BRANCH  27  28
ATOM     28  CG  ASN A   7       4.491  -7.043  29.313  0.00  0.00    +0.213 C 
ATOM     29  OD1 ASN A   7       3.450  -7.621  29.624  0.00  0.00    -0.276 OA
ATOM     30  ND2 ASN A   7       5.466  -6.883  30.244  0.00  0.00    -0.329 N 
ATOM     31 HD21 ASN A   7       5.172  -7.132  31.180  0.00  0.00    +0.145 HD
ATOM     32 HD22 ASN A   7       6.008  -6.015  30.227  0.00  0.00    +0.145 HD
ENDBRANCH  27  28
ENDBRANCH  16  27
ENDBRANCH  14  16
ENDBRANCH  11  12
BRANCH  11  33
ATOM     33  CB  GLU A   6       2.749  -6.067  23.501  0.00  0.00    +0.037 C 
BRANCH  33  34
ATOM     34  CG  GLU A   6       1.665  -6.530  24.470  0.00  0.00    +0.054 C 
BRANCH  34  35
ATOM     35  CD  GLU A   6       2.029  -7.793  25.256  0.00  0.00    +0.042 C 
ATOM     36  OE2 GLU A   6       1.739  -7.731  26.484  0.00  0.00    -0.550 OA
ATOM     37  OE1 GLU A   6       2.582  -8.719  24.604  0.00  0.00    -0.550 OA
ENDBRANCH  34  35
ENDBRANCH  33  34
ENDBRANCH  11  33
ENDBRANCH   8  11
ENDBRANCH   5   7
ENDBRANCH   3   5
BRANCH   1  38
ATOM     38  CA  GLN A   4       7.467   0.685  21.568  0.00  0.00    +0.159 C 
BRANCH  38  40
ATOM     39  C   LEU A   3       6.307   2.785  22.238  0.00  0.00    +0.234 C 
ATOM     40  N   GLN A   4       6.380   1.415  22.223  0.00  0.00    -0.302 N 
ATOM     41  H   GLN A   4       5.709   0.852  22.739  0.00  0.00    +0.150 HD
ATOM     42  O   LEU A   3       7.122   3.507  21.664  0.00  0.00    -0.274 OA
BRANCH  39  43
ATOM     43  CA  LEU A   3       5.097   3.365  22.999  0.00  0.00    +0.159 C 
BRANCH  43  46
ATOM     44  C   THR A   2       4.364   2.621  25.260  0.00  0.00    +0.236 C 
ATOM     45  O   THR A   2       3.190   2.476  24.918  0.00  0.00    -0.274 OA
ATOM     46  N   LEU A   3       5.335   3.100  24.415  0.00  0.00    -0.302 N 
ATOM     47  H   LEU A   3       6.310   3.090  24.704  0.00  0.00    +0.150 HD
BRANCH  44  48
ATOM     48  CA  THR A   2       4.848   2.249  26.667  0.00  0.00    +0.187 C 
BRANCH  48  50
ATOM     49  C   ALA A   1       3.497   0.367  27.575  0.00  0.00    +0.230 C 
ATOM     50  N   THR A   2       4.553   0.822  26.823  0.00  0.00    -0.301 N 
ATOM     51  H   THR A   2       5.228   0.172  26.436  0.00  0.00    +0.150 HD
ATOM     52  O   ALA A   1       2.650   1.103  28.077  0.00  0.00    -0.274 OA
BRANCH  49  53
ATOM     53  CA  ALA A   1       3.435  -1.168  27.710  0.00  0.00    +0.135 C 
ATOM     54  CB  ALA A   1       4.153  -1.597  28.981  0.00  0.00    +0.033 C 
BRANCH  53  55
ATOM     55  N   ALA A   1       4.064  -1.796  26.530  0.00  0.00    -0.320 NA
ATOM     56  H1  ALA A   1       3.448  -1.634  25.731  0.00  0.00    +0.119 HD
ATOM     57  H2  ALA A   1       4.892  -1.235  26.305  0.00  0.00    +0.119 HD
ENDBRANCH  53  55
ENDBRANCH  49  53
ENDBRANCH  48  50
BRANCH  48  58
ATOM     58  CB  THR A   2       6.366   2.532  26.778  0.00  0.00    +0.141 C 
ATOM     59  CG2 THR A   2       6.874   2.442  28.215  0.00  0.00    +0.040 C 
BRANCH  58  60
ATOM     60  OG1 THR A   2       7.108   1.594  25.985  0.00  0.00    -0.390 OA
ATOM     61  HG1 THR A   2       6.807   1.678  25.065  0.00  0.00    +0.210 HD
ENDBRANCH  58  60
ENDBRANCH  48  58
ENDBRANCH  44  48
ENDBRANCH  43  46
BRANCH  43  62
ATOM     62  CB  LEU A   3       4.981   4.870  22.711  0.00  0.00    +0.034 C 
BRANCH  62  63
ATOM     63  CG  LEU A   3       3.541   5.386  22.520  0.00  0.00    -0.015 C 
ATOM     64  CD2 LEU A   3       2.679   4.293  21.882  0.00  0.00    +0.007 C 
ATOM     65  CD1 LEU A   3       2.907   5.827  23.840  0.00  0.00    +0.007 C 
ENDBRANCH  62  63
ENDBRANCH  43  62
ENDBRANCH  39  43
ENDBRANCH  38  40
BRANCH  38  66
ATOM     66  CB  GLN A   4       8.625   0.455  22.546  0.00  0.00    +0.041 C 
BRANCH  66  67
ATOM     67  CG  GLN A   4       9.842   1.336  22.272  0.00  0.00    +0.098 C 
BRANCH  67  68
ATOM     68  CD  GLN A   4       9.951   2.411  23.328  0.00  0.00    +0.211 C 
ATOM     69  OE1 GLN A   4       9.315   2.392  24.375  0.00  0.00    -0.276 OA
ATOM     70  NE2 GLN A   4      10.874   3.381  23.077  0.00  0.00    -0.329 N 
ATOM     71 HE21 GLN A   4      11.170   3.586  22.131  0.00  0.00    +0.145 HD
ATOM     72 HE22 GLN A   4      10.884   4.156  23.729  0.00  0.00    +0.145 HD
ENDBRANCH  67  68
ENDBRANCH  66  67
ENDBRANCH  38  66
ENDBRANCH   1  38
TORSDOF 29
ENDMDL
MODEL 14
REMARK VINA RESULT:      -5.7      2.187      7.912
REMARK  Name = ATLQAENV-mmff94.pdb
REMARK  36 active torsions:
REMARK  status: ('A' for Active; 'I' for Inactive)
REMARK    1  A    between atoms: _1  and  _2
REMARK    2  A    between atoms: _2  and  _3
REMARK    3  A    between atoms: _2  and  _5
REMARK    4  A    between atoms: _11  and  _12
REMARK    5  A    between atoms: _12  and  _13
REMARK    6  A    between atoms: _12  and  _15
REMARK    7  A    between atoms: _15  and  _16
REMARK    8  A    between atoms: _15  and  _17
REMARK    9  A    between atoms: _25  and  _26
REMARK   10  A    between atoms: _26  and  _27
REMARK   11  A    between atoms: _26  and  _29
REMARK   12  A    between atoms: _29  and  _30
REMARK   13  A    between atoms: _30  and  _31
REMARK   14  A    between atoms: _30  and  _32
REMARK   15  A    between atoms: _44  and  _45
REMARK   16  A    between atoms: _45  and  _46
REMARK   17  A    between atoms: _45  and  _48
REMARK   18  A    between atoms: _48  and  _49
REMARK   19  A    between atoms: _49  and  _50
REMARK   20  A    between atoms: _61  and  _62
REMARK   21  A    between atoms: _62  and  _63
REMARK   22  A    between atoms: _62  and  _65
REMARK   23  A    between atoms: _71  and  _72
REMARK   24  A    between atoms: _72  and  _73
REMARK   25  A    between atoms: _72  and  _75
REMARK   26  A    between atoms: _75  and  _76
REMARK   27  A    between atoms: _76  and  _77
REMARK   28  A    between atoms: _86  and  _87
REMARK   29  A    between atoms: _87  and  _88
REMARK   30  A    between atoms: _87  and  _90
REMARK   31  A    between atoms: _90  and  _91
REMARK   32  A    between atoms: _100  and  _101
REMARK   33  A    between atoms: _101  and  _102
REMARK   34  A    between atoms: _101  and  _104
REMARK   35  A    between atoms: _104  and  _105
REMARK   36  A    between atoms: _104  and  _106
REMARK                            x       y       z     vdW  Elec       q    Type
REMARK                         _______ _______ _______ _____ _____    ______ ____
ROOT
ATOM      1  C   GLN A   4       5.785  -4.930  26.340  0.00  0.00    +0.234 C 
ATOM      2  O   GLN A   4       6.258  -6.035  26.071  0.00  0.00    -0.274 OA
ATOM      3  N   ALA A   5       6.521  -3.774  26.289  0.00  0.00    -0.303 N 
ATOM      4  H   ALA A   5       6.104  -2.870  26.498  0.00  0.00    +0.149 HD
ENDROOT
BRANCH   3   5
ATOM      5  CA  ALA A   5       7.942  -3.759  25.961  0.00  0.00    +0.156 C 
ATOM      6  CB  ALA A   5       8.692  -4.884  26.663  0.00  0.00    +0.038 C 
BRANCH   5   7
ATOM      7  C   ALA A   5       8.075  -3.907  24.435  0.00  0.00    +0.234 C 
ATOM      8  N   GLU A   6       7.465  -2.914  23.715  0.00  0.00    -0.302 N 
ATOM      9  H   GLU A   6       6.855  -2.248  24.179  0.00  0.00    +0.150 HD
ATOM     10  O   ALA A   5       8.717  -4.827  23.929  0.00  0.00    -0.274 OA
BRANCH   8  11
ATOM     11  CA  GLU A   6       7.414  -2.897  22.252  0.00  0.00    +0.159 C 
BRANCH  11  12
ATOM     12  C   GLU A   6       7.911  -1.496  21.850  0.00  0.00    +0.234 C 
ATOM     13  O   GLU A   6       9.112  -1.222  21.771  0.00  0.00    -0.274 OA
ATOM     14  N   ASN A   7       6.936  -0.567  21.586  0.00  0.00    -0.302 N 
ATOM     15  H   ASN A   7       5.964  -0.802  21.787  0.00  0.00    +0.150 HD
BRANCH  14  16
ATOM     16  CA  ASN A   7       7.233   0.852  21.398  0.00  0.00    +0.168 C 
BRANCH  16  17
ATOM     17  C   ASN A   7       6.481   1.613  22.504  0.00  0.00    +0.234 C 
ATOM     18  N   VAL A   8       6.001   2.847  22.139  0.00  0.00    -0.304 N 
ATOM     19  H   VAL A   8       6.149   3.202  21.199  0.00  0.00    +0.149 HD
ATOM     20  O   ASN A   7       6.285   1.119  23.613  0.00  0.00    -0.274 OA
BRANCH  18  21
ATOM     21  CA  VAL A   8       5.230   3.692  23.046  0.00  0.00    +0.138 C 
BRANCH  21  22
ATOM     22  CB  VAL A   8       5.626   5.181  22.956  0.00  0.00    +0.010 C 
ATOM     23  CG2 VAL A   8       7.024   5.365  22.353  0.00  0.00    +0.009 C 
ATOM     24  CG1 VAL A   8       5.589   5.859  24.331  0.00  0.00    +0.009 C 
ENDBRANCH  21  22
BRANCH  21  25
ATOM     25  C   VAL A   8       3.770   3.487  22.652  0.00  0.00    +0.245 C 
ATOM     26  O   VAL A   8       2.957   2.848  23.320  0.00  0.00    -0.299 OA
ENDBRANCH  21  25
ENDBRANCH  18  21
ENDBRANCH  16  17
BRANCH  16  27
ATOM     27  CB  ASN A   7       6.751   1.395  20.054  0.00  0.00    +0.127 C 
BRANCH  27  28
ATOM     28  CG  ASN A   7       5.581   0.711  19.381  0.00  0.00    +0.213 C 
ATOM     29  OD1 ASN A   7       5.648  -0.462  19.017  0.00  0.00    -0.276 OA
ATOM     30  ND2 ASN A   7       4.400   1.373  19.273  0.00  0.00    -0.329 N 
ATOM     31 HD21 ASN A   7       3.702   0.866  18.745  0.00  0.00    +0.145 HD
ATOM     32 HD22 ASN A   7       4.428   2.365  19.023  0.00  0.00    +0.145 HD
ENDBRANCH  27  28
ENDBRANCH  16  27
ENDBRANCH  14  16
ENDBRANCH  11  12
BRANCH  11  33
ATOM     33  CB  GLU A   6       5.981  -3.132  21.766  0.00  0.00    +0.037 C 
BRANCH  33  34
ATOM     34  CG  GLU A   6       5.416  -4.494  22.160  0.00  0.00    +0.054 C 
BRANCH  34  35
ATOM     35  CD  GLU A   6       6.034  -5.670  21.399  0.00  0.00    +0.042 C 
ATOM     36  OE2 GLU A   6       6.517  -6.566  22.148  0.00  0.00    -0.550 OA
ATOM     37  OE1 GLU A   6       6.009  -5.600  20.140  0.00  0.00    -0.550 OA
ENDBRANCH  34  35
ENDBRANCH  33  34
ENDBRANCH  11  33
ENDBRANCH   8  11
ENDBRANCH   5   7
ENDBRANCH   3   5
BRANCH   1  38
ATOM     38  CA  GLN A   4       4.324  -4.765  26.797  0.00  0.00    +0.159 C 
BRANCH  38  40
ATOM     39  C   LEU A   3       4.084  -2.799  28.307  0.00  0.00    +0.234 C 
ATOM     40  N   GLN A   4       4.142  -3.334  27.045  0.00  0.00    -0.302 N 
ATOM     41  H   GLN A   4       3.983  -2.754  26.225  0.00  0.00    +0.150 HD
ATOM     42  O   LEU A   3       4.226  -3.471  29.327  0.00  0.00    -0.274 OA
BRANCH  39  43
ATOM     43  CA  LEU A   3       3.865  -1.273  28.358  0.00  0.00    +0.159 C 
BRANCH  43  46
ATOM     44  C   THR A   2       6.028  -0.430  27.459  0.00  0.00    +0.236 C 
ATOM     45  O   THR A   2       5.783  -0.795  26.309  0.00  0.00    -0.274 OA
ATOM     46  N   LEU A   3       5.186  -0.672  28.516  0.00  0.00    -0.302 N 
ATOM     47  H   LEU A   3       5.372  -0.247  29.421  0.00  0.00    +0.150 HD
BRANCH  44  48
ATOM     48  CA  THR A   2       7.299   0.358  27.803  0.00  0.00    +0.187 C 
BRANCH  48  50
ATOM     49  C   ALA A   1       8.916   0.173  25.921  0.00  0.00    +0.230 C 
ATOM     50  N   THR A   2       7.851   0.800  26.519  0.00  0.00    -0.301 N 
ATOM     51  H   THR A   2       7.479   1.662  26.137  0.00  0.00    +0.150 HD
ATOM     52  O   ALA A   1       9.417  -0.869  26.339  0.00  0.00    -0.274 OA
BRANCH  49  53
ATOM     53  CA  ALA A   1       9.418   0.868  24.639  0.00  0.00    +0.135 C 
ATOM     54  CB  ALA A   1      10.914   0.634  24.486  0.00  0.00    +0.033 C 
BRANCH  53  55
ATOM     55  N   ALA A   1       9.132   2.315  24.714  0.00  0.00    -0.320 NA
ATOM     56  H1  ALA A   1       8.271   2.430  25.253  0.00  0.00    +0.119 HD
ATOM     57  H2  ALA A   1       9.846   2.725  25.325  0.00  0.00    +0.119 HD
ENDBRANCH  53  55
ENDBRANCH  49  53
ENDBRANCH  48  50
BRANCH  48  58
ATOM     58  CB  THR A   2       6.928   1.558  28.707  0.00  0.00    +0.141 C 
ATOM     59  CG2 THR A   2       7.541   1.451  30.101  0.00  0.00    +0.040 C 
BRANCH  58  60
ATOM     60  OG1 THR A   2       7.379   2.785  28.118  0.00  0.00    -0.390 OA
ATOM     61  HG1 THR A   2       6.847   2.947  27.320  0.00  0.00    +0.210 HD
ENDBRANCH  58  60
ENDBRANCH  48  58
ENDBRANCH  44  48
ENDBRANCH  43  46
BRANCH  43  62
ATOM     62  CB  LEU A   3       3.176  -0.808  27.067  0.00  0.00    +0.034 C 
BRANCH  62  63
ATOM     63  CG  LEU A   3       2.262   0.424  27.224  0.00  0.00    -0.015 C 
ATOM     64  CD2 LEU A   3       1.742   0.502  28.662  0.00  0.00    +0.007 C 
ATOM     65  CD1 LEU A   3       2.984   1.726  26.873  0.00  0.00    +0.007 C 
ENDBRANCH  62  63
ENDBRANCH  43  62
ENDBRANCH  39  43
ENDBRANCH  38  40
BRANCH  38  66
ATOM     66  CB  GLN A   4       3.347  -5.253  25.720  0.00  0.00    +0.041 C 
BRANCH  66  67
ATOM     67  CG  GLN A   4       2.754  -6.629  26.012  0.00  0.00    +0.098 C 
BRANCH  67  68
ATOM     68  CD  GLN A   4       3.181  -7.612  24.947  0.00  0.00    +0.211 C 
ATOM     69  OE1 GLN A   4       2.677  -8.721  24.814  0.00  0.00    -0.276 OA
ATOM     70  NE2 GLN A   4       4.124  -7.153  24.076  0.00  0.00    -0.329 N 
ATOM     71 HE21 GLN A   4       4.751  -6.403  24.336  0.00  0.00    +0.145 HD
ATOM     72 HE22 GLN A   4       4.486  -7.837  23.423  0.00  0.00    +0.145 HD
ENDBRANCH  67  68
ENDBRANCH  66  67
ENDBRANCH  38  66
ENDBRANCH   1  38
TORSDOF 29
ENDMDL
MODEL 15
REMARK VINA RESULT:      -5.6      2.244      6.337
REMARK  Name = ATLQAENV-mmff94.pdb
REMARK  36 active torsions:
REMARK  status: ('A' for Active; 'I' for Inactive)
REMARK    1  A    between atoms: _1  and  _2
REMARK    2  A    between atoms: _2  and  _3
REMARK    3  A    between atoms: _2  and  _5
REMARK    4  A    between atoms: _11  and  _12
REMARK    5  A    between atoms: _12  and  _13
REMARK    6  A    between atoms: _12  and  _15
REMARK    7  A    between atoms: _15  and  _16
REMARK    8  A    between atoms: _15  and  _17
REMARK    9  A    between atoms: _25  and  _26
REMARK   10  A    between atoms: _26  and  _27
REMARK   11  A    between atoms: _26  and  _29
REMARK   12  A    between atoms: _29  and  _30
REMARK   13  A    between atoms: _30  and  _31
REMARK   14  A    between atoms: _30  and  _32
REMARK   15  A    between atoms: _44  and  _45
REMARK   16  A    between atoms: _45  and  _46
REMARK   17  A    between atoms: _45  and  _48
REMARK   18  A    between atoms: _48  and  _49
REMARK   19  A    between atoms: _49  and  _50
REMARK   20  A    between atoms: _61  and  _62
REMARK   21  A    between atoms: _62  and  _63
REMARK   22  A    between atoms: _62  and  _65
REMARK   23  A    between atoms: _71  and  _72
REMARK   24  A    between atoms: _72  and  _73
REMARK   25  A    between atoms: _72  and  _75
REMARK   26  A    between atoms: _75  and  _76
REMARK   27  A    between atoms: _76  and  _77
REMARK   28  A    between atoms: _86  and  _87
REMARK   29  A    between atoms: _87  and  _88
REMARK   30  A    between atoms: _87  and  _90
REMARK   31  A    between atoms: _90  and  _91
REMARK   32  A    between atoms: _100  and  _101
REMARK   33  A    between atoms: _101  and  _102
REMARK   34  A    between atoms: _101  and  _104
REMARK   35  A    between atoms: _104  and  _105
REMARK   36  A    between atoms: _104  and  _106
REMARK                            x       y       z     vdW  Elec       q    Type
REMARK                         _______ _______ _______ _____ _____    ______ ____
ROOT
ATOM      1  C   GLN A   4       4.819   3.076  24.891  0.00  0.00    +0.234 C 
ATOM      2  O   GLN A   4       5.869   3.414  25.440  0.00  0.00    -0.274 OA
ATOM      3  N   ALA A   5       3.862   2.321  25.516  0.00  0.00    -0.303 N 
ATOM      4  H   ALA A   5       2.995   2.070  25.048  0.00  0.00    +0.149 HD
ENDROOT
BRANCH   3   5
ATOM      5  CA  ALA A   5       4.026   1.807  26.872  0.00  0.00    +0.156 C 
ATOM      6  CB  ALA A   5       3.634   2.844  27.917  0.00  0.00    +0.038 C 
BRANCH   5   7
ATOM      7  C   ALA A   5       3.141   0.556  27.011  0.00  0.00    +0.234 C 
ATOM      8  N   GLU A   6       3.835  -0.609  27.208  0.00  0.00    -0.302 N 
ATOM      9  H   GLU A   6       4.844  -0.625  27.104  0.00  0.00    +0.150 HD
ATOM     10  O   ALA A   5       1.912   0.628  26.987  0.00  0.00    -0.274 OA
BRANCH   8  11
ATOM     11  CA  GLU A   6       3.192  -1.921  27.301  0.00  0.00    +0.159 C 
BRANCH  11  12
ATOM     12  C   GLU A   6       4.292  -2.870  27.812  0.00  0.00    +0.234 C 
ATOM     13  O   GLU A   6       4.536  -3.007  29.015  0.00  0.00    -0.274 OA
ATOM     14  N   ASN A   7       4.989  -3.555  26.849  0.00  0.00    -0.302 N 
ATOM     15  H   ASN A   7       4.839  -3.316  25.869  0.00  0.00    +0.150 HD
BRANCH  14  16
ATOM     16  CA  ASN A   7       6.193  -4.328  27.149  0.00  0.00    +0.168 C 
BRANCH  16  17
ATOM     17  C   ASN A   7       7.020  -4.383  25.853  0.00  0.00    +0.234 C 
ATOM     18  N   VAL A   8       6.302  -4.204  24.696  0.00  0.00    -0.304 N 
ATOM     19  H   VAL A   8       5.300  -4.049  24.728  0.00  0.00    +0.149 HD
ATOM     20  O   ASN A   7       8.241  -4.525  25.868  0.00  0.00    -0.274 OA
BRANCH  18  21
ATOM     21  CA  VAL A   8       6.927  -4.186  23.377  0.00  0.00    +0.138 C 
BRANCH  21  22
ATOM     22  CB  VAL A   8       6.712  -5.500  22.597  0.00  0.00    +0.010 C 
ATOM     23  CG2 VAL A   8       6.287  -5.240  21.147  0.00  0.00    +0.009 C 
ATOM     24  CG1 VAL A   8       5.657  -6.388  23.267  0.00  0.00    +0.009 C 
ENDBRANCH  21  22
BRANCH  21  25
ATOM     25  C   VAL A   8       6.299  -3.003  22.644  0.00  0.00    +0.245 C 
ATOM     26  O   VAL A   8       6.855  -1.918  22.481  0.00  0.00    -0.299 OA
ENDBRANCH  21  25
ENDBRANCH  18  21
ENDBRANCH  16  17
BRANCH  16  27
ATOM     27  CB  ASN A   7       5.895  -5.767  27.568  0.00  0.00    +0.127 C 
BRANCH  27  28
ATOM     28  CG  ASN A   7       6.214  -6.184  28.986  0.00  0.00    +0.213 C 
ATOM     29  OD1 ASN A   7       5.962  -5.449  29.941  0.00  0.00    -0.276 OA
ATOM     30  ND2 ASN A   7       6.691  -7.433  29.218  0.00  0.00    -0.329 N 
ATOM     31 HD21 ASN A   7       6.943  -7.595  30.185  0.00  0.00    +0.145 HD
ATOM     32 HD22 ASN A   7       7.387  -7.809  28.569  0.00  0.00    +0.145 HD
ENDBRANCH  27  28
ENDBRANCH  16  27
ENDBRANCH  14  16
ENDBRANCH  11  12
BRANCH  11  33
ATOM     33  CB  GLU A   6       2.681  -2.363  25.927  0.00  0.00    +0.037 C 
BRANCH  33  34
ATOM     34  CG  GLU A   6       1.715  -3.543  25.982  0.00  0.00    +0.054 C 
BRANCH  34  35
ATOM     35  CD  GLU A   6       2.197  -4.780  25.219  0.00  0.00    +0.042 C 
ATOM     36  OE2 GLU A   6       1.455  -5.792  25.366  0.00  0.00    -0.550 OA
ATOM     37  OE1 GLU A   6       3.267  -4.653  24.563  0.00  0.00    -0.550 OA
ENDBRANCH  34  35
ENDBRANCH  33  34
ENDBRANCH  11  33
ENDBRANCH   8  11
ENDBRANCH   5   7
ENDBRANCH   3   5
BRANCH   1  38
ATOM     38  CA  GLN A   4       4.516   3.450  23.428  0.00  0.00    +0.159 C 
BRANCH  38  40
ATOM     39  C   LEU A   3       6.558   2.918  22.105  0.00  0.00    +0.234 C 
ATOM     40  N   GLN A   4       5.335   2.554  22.609  0.00  0.00    -0.302 N 
ATOM     41  H   GLN A   4       4.915   1.661  22.365  0.00  0.00    +0.150 HD
ATOM     42  O   LEU A   3       7.084   4.005  22.339  0.00  0.00    -0.274 OA
BRANCH  39  43
ATOM     43  CA  LEU A   3       7.256   1.841  21.248  0.00  0.00    +0.159 C 
BRANCH  43  46
ATOM     44  C   THR A   2       9.292   0.864  22.295  0.00  0.00    +0.236 C 
ATOM     45  O   THR A   2      10.063   1.469  21.549  0.00  0.00    -0.274 OA
ATOM     46  N   LEU A   3       7.926   0.941  22.181  0.00  0.00    -0.302 N 
ATOM     47  H   LEU A   3       7.332   0.522  22.892  0.00  0.00    +0.150 HD
BRANCH  44  48
ATOM     48  CA  THR A   2       9.804  -0.015  23.444  0.00  0.00    +0.187 C 
BRANCH  48  50
ATOM     49  C   ALA A   1       8.187   0.682  25.202  0.00  0.00    +0.230 C 
ATOM     50  N   THR A   2       8.643  -0.254  24.306  0.00  0.00    -0.301 N 
ATOM     51  H   THR A   2       8.250  -1.189  24.291  0.00  0.00    +0.150 HD
ATOM     52  O   ALA A   1       8.627   1.828  25.276  0.00  0.00    -0.274 OA
BRANCH  49  53
ATOM     53  CA  ALA A   1       7.033   0.187  26.097  0.00  0.00    +0.135 C 
ATOM     54  CB  ALA A   1       7.590  -0.283  27.434  0.00  0.00    +0.033 C 
BRANCH  53  55
ATOM     55  N   ALA A   1       6.320  -0.918  25.424  0.00  0.00    -0.320 NA
ATOM     56  H1  ALA A   1       5.414  -0.556  25.117  0.00  0.00    +0.119 HD
ATOM     57  H2  ALA A   1       6.813  -1.091  24.542  0.00  0.00    +0.119 HD
ENDBRANCH  53  55
ENDBRANCH  49  53
ENDBRANCH  48  50
BRANCH  48  58
ATOM     58  CB  THR A   2      10.366  -1.336  22.866  0.00  0.00    +0.141 C 
ATOM     59  CG2 THR A   2      10.056  -2.540  23.752  0.00  0.00    +0.040 C 
BRANCH  58  60
ATOM     60  OG1 THR A   2       9.815  -1.588  21.566  0.00  0.00    -0.390 OA
ATOM     61  HG1 THR A   2      10.252  -0.991  20.936  0.00  0.00    +0.210 HD
ENDBRANCH  58  60
ENDBRANCH  48  58
ENDBRANCH  44  48
ENDBRANCH  43  46
BRANCH  43  62
ATOM     62  CB  LEU A   3       6.210   1.106  20.395  0.00  0.00    +0.034 C 
BRANCH  62  63
ATOM     63  CG  LEU A   3       6.650   0.796  18.950  0.00  0.00    -0.015 C 
ATOM     64  CD2 LEU A   3       7.810  -0.204  18.965  0.00  0.00    +0.007 C 
ATOM     65  CD1 LEU A   3       5.505   0.234  18.107  0.00  0.00    +0.007 C 
ENDBRANCH  62  63
ENDBRANCH  43  62
ENDBRANCH  39  43
ENDBRANCH  38  40
BRANCH  38  66
ATOM     66  CB  GLN A   4       3.029   3.264  23.104  0.00  0.00    +0.041 C 
BRANCH  66  67
ATOM     67  CG  GLN A   4       2.468   4.337  22.173  0.00  0.00    +0.098 C 
BRANCH  67  68
ATOM     68  CD  GLN A   4       2.616   3.902  20.734  0.00  0.00    +0.211 C 
ATOM     69  OE1 GLN A   4       2.964   2.775  20.405  0.00  0.00    -0.276 OA
ATOM     70  NE2 GLN A   4       2.258   4.833  19.805  0.00  0.00    -0.329 N 
ATOM     71 HE21 GLN A   4       2.269   5.821  20.027  0.00  0.00    +0.145 HD
ATOM     72 HE22 GLN A   4       2.448   4.586  18.842  0.00  0.00    +0.145 HD
ENDBRANCH  67  68
ENDBRANCH  66  67
ENDBRANCH  38  66
ENDBRANCH   1  38
TORSDOF 29
ENDMDL
MODEL 16
REMARK VINA RESULT:      -5.6      2.327      6.942
REMARK  Name = ATLQAENV-mmff94.pdb
REMARK  36 active torsions:
REMARK  status: ('A' for Active; 'I' for Inactive)
REMARK    1  A    between atoms: _1  and  _2
REMARK    2  A    between atoms: _2  and  _3
REMARK    3  A    between atoms: _2  and  _5
REMARK    4  A    between atoms: _11  and  _12
REMARK    5  A    between atoms: _12  and  _13
REMARK    6  A    between atoms: _12  and  _15
REMARK    7  A    between atoms: _15  and  _16
REMARK    8  A    between atoms: _15  and  _17
REMARK    9  A    between atoms: _25  and  _26
REMARK   10  A    between atoms: _26  and  _27
REMARK   11  A    between atoms: _26  and  _29
REMARK   12  A    between atoms: _29  and  _30
REMARK   13  A    between atoms: _30  and  _31
REMARK   14  A    between atoms: _30  and  _32
REMARK   15  A    between atoms: _44  and  _45
REMARK   16  A    between atoms: _45  and  _46
REMARK   17  A    between atoms: _45  and  _48
REMARK   18  A    between atoms: _48  and  _49
REMARK   19  A    between atoms: _49  and  _50
REMARK   20  A    between atoms: _61  and  _62
REMARK   21  A    between atoms: _62  and  _63
REMARK   22  A    between atoms: _62  and  _65
REMARK   23  A    between atoms: _71  and  _72
REMARK   24  A    between atoms: _72  and  _73
REMARK   25  A    between atoms: _72  and  _75
REMARK   26  A    between atoms: _75  and  _76
REMARK   27  A    between atoms: _76  and  _77
REMARK   28  A    between atoms: _86  and  _87
REMARK   29  A    between atoms: _87  and  _88
REMARK   30  A    between atoms: _87  and  _90
REMARK   31  A    between atoms: _90  and  _91
REMARK   32  A    between atoms: _100  and  _101
REMARK   33  A    between atoms: _101  and  _102
REMARK   34  A    between atoms: _101  and  _104
REMARK   35  A    between atoms: _104  and  _105
REMARK   36  A    between atoms: _104  and  _106
REMARK                            x       y       z     vdW  Elec       q    Type
REMARK                         _______ _______ _______ _____ _____    ______ ____
ROOT
ATOM      1  C   GLN A   4       6.870  -1.226  26.049  0.00  0.00    +0.234 C 
ATOM      2  O   GLN A   4       7.089  -0.771  24.925  0.00  0.00    -0.274 OA
ATOM      3  N   ALA A   5       7.390  -2.417  26.482  0.00  0.00    -0.303 N 
ATOM      4  H   ALA A   5       7.211  -2.764  27.422  0.00  0.00    +0.149 HD
ENDROOT
BRANCH   3   5
ATOM      5  CA  ALA A   5       8.208  -3.276  25.633  0.00  0.00    +0.156 C 
ATOM      6  CB  ALA A   5       9.164  -4.133  26.454  0.00  0.00    +0.038 C 
BRANCH   5   7
ATOM      7  C   ALA A   5       7.259  -4.175  24.820  0.00  0.00    +0.234 C 
ATOM      8  N   GLU A   6       6.739  -3.582  23.700  0.00  0.00    -0.302 N 
ATOM      9  H   GLU A   6       6.867  -2.587  23.543  0.00  0.00    +0.150 HD
ATOM     10  O   ALA A   5       7.034  -5.340  25.147  0.00  0.00    -0.274 OA
BRANCH   8  11
ATOM     11  CA  GLU A   6       5.766  -4.235  22.822  0.00  0.00    +0.159 C 
BRANCH  11  12
ATOM     12  C   GLU A   6       5.902  -3.516  21.467  0.00  0.00    +0.234 C 
ATOM     13  O   GLU A   6       5.761  -4.106  20.392  0.00  0.00    -0.274 OA
ATOM     14  N   ASN A   7       6.195  -2.176  21.526  0.00  0.00    -0.302 N 
ATOM     15  H   ASN A   7       6.427  -1.762  22.428  0.00  0.00    +0.150 HD
BRANCH  14  16
ATOM     16  CA  ASN A   7       6.562  -1.399  20.344  0.00  0.00    +0.168 C 
BRANCH  16  17
ATOM     17  C   ASN A   7       7.931  -0.762  20.639  0.00  0.00    +0.234 C 
ATOM     18  N   VAL A   8       8.469  -1.078  21.863  0.00  0.00    -0.304 N 
ATOM     19  H   VAL A   8       7.973  -1.690  22.502  0.00  0.00    +0.149 HD
ATOM     20  O   ASN A   7       8.515  -0.065  19.810  0.00  0.00    -0.274 OA
BRANCH  18  21
ATOM     21  CA  VAL A   8       9.777  -0.596  22.295  0.00  0.00    +0.138 C 
BRANCH  21  22
ATOM     22  CB  VAL A   8       9.685   0.660  23.188  0.00  0.00    +0.010 C 
ATOM     23  CG2 VAL A   8      10.014   1.940  22.410  0.00  0.00    +0.009 C 
ATOM     24  CG1 VAL A   8      10.624   0.564  24.397  0.00  0.00    +0.009 C 
ENDBRANCH  21  22
BRANCH  21  25
ATOM     25  C   VAL A   8      10.411  -1.761  23.052  0.00  0.00    +0.245 C 
ATOM     26  O   VAL A   8       9.949  -2.901  23.075  0.00  0.00    -0.299 OA
ENDBRANCH  21  25
ENDBRANCH  18  21
ENDBRANCH  16  17
BRANCH  16  27
ATOM     27  CB  ASN A   7       5.582  -0.267  20.040  0.00  0.00    +0.127 C 
BRANCH  27  28
ATOM     28  CG  ASN A   7       5.538   0.287  18.633  0.00  0.00    +0.213 C 
ATOM     29  OD1 ASN A   7       5.870  -0.397  17.665  0.00  0.00    -0.276 OA
ATOM     30  ND2 ASN A   7       5.021   1.525  18.424  0.00  0.00    -0.329 N 
ATOM     31 HD21 ASN A   7       5.101   1.837  17.465  0.00  0.00    +0.145 HD
ATOM     32 HD22 ASN A   7       5.260   2.262  19.092  0.00  0.00    +0.145 HD
ENDBRANCH  27  28
ENDBRANCH  16  27
ENDBRANCH  14  16
ENDBRANCH  11  12
BRANCH  11  33
ATOM     33  CB  GLU A   6       4.351  -4.080  23.386  0.00  0.00    +0.037 C 
BRANCH  33  34
ATOM     34  CG  GLU A   6       3.550  -5.379  23.397  0.00  0.00    +0.054 C 
BRANCH  34  35
ATOM     35  CD  GLU A   6       3.810  -6.263  24.619  0.00  0.00    +0.042 C 
ATOM     36  OE2 GLU A   6       4.311  -7.389  24.338  0.00  0.00    -0.550 OA
ATOM     37  OE1 GLU A   6       3.481  -5.784  25.738  0.00  0.00    -0.550 OA
ENDBRANCH  34  35
ENDBRANCH  33  34
ENDBRANCH  11  33
ENDBRANCH   8  11
ENDBRANCH   5   7
ENDBRANCH   3   5
BRANCH   1  38
ATOM     38  CA  GLN A   4       5.953  -0.501  27.050  0.00  0.00    +0.159 C 
BRANCH  38  40
ATOM     39  C   LEU A   3       6.676   1.613  28.152  0.00  0.00    +0.234 C 
ATOM     40  N   GLN A   4       6.360   0.905  27.020  0.00  0.00    -0.302 N 
ATOM     41  H   GLN A   4       6.327   1.362  26.112  0.00  0.00    +0.150 HD
ATOM     42  O   LEU A   3       6.686   1.111  29.275  0.00  0.00    -0.274 OA
BRANCH  39  43
ATOM     43  CA  LEU A   3       7.060   3.088  27.913  0.00  0.00    +0.159 C 
BRANCH  43  46
ATOM     44  C   THR A   2       7.784   4.328  25.879  0.00  0.00    +0.236 C 
ATOM     45  O   THR A   2       8.235   5.277  26.521  0.00  0.00    -0.274 OA
ATOM     46  N   LEU A   3       7.151   3.261  26.466  0.00  0.00    -0.302 N 
ATOM     47  H   LEU A   3       6.903   2.447  25.908  0.00  0.00    +0.150 HD
BRANCH  44  48
ATOM     48  CA  THR A   2       7.920   4.248  24.352  0.00  0.00    +0.187 C 
BRANCH  48  50
ATOM     49  C   ALA A   1       6.015   3.292  23.070  0.00  0.00    +0.230 C 
ATOM     50  N   THR A   2       6.552   4.302  23.830  0.00  0.00    -0.301 N 
ATOM     51  H   THR A   2       6.047   5.171  23.963  0.00  0.00    +0.150 HD
ATOM     52  O   ALA A   1       6.579   2.219  22.864  0.00  0.00    -0.274 OA
BRANCH  49  53
ATOM     53  CA  ALA A   1       4.608   3.598  22.518  0.00  0.00    +0.135 C 
ATOM     54  CB  ALA A   1       3.561   3.231  23.560  0.00  0.00    +0.033 C 
BRANCH  53  55
ATOM     55  N   ALA A   1       4.384   2.832  21.275  0.00  0.00    -0.320 NA
ATOM     56  H1  ALA A   1       3.615   2.182  21.451  0.00  0.00    +0.119 HD
ATOM     57  H2  ALA A   1       3.985   3.487  20.594  0.00  0.00    +0.119 HD
ENDBRANCH  53  55
ENDBRANCH  49  53
ENDBRANCH  48  50
BRANCH  48  58
ATOM     58  CB  THR A   2       8.768   5.442  23.851  0.00  0.00    +0.141 C 
ATOM     59  CG2 THR A   2      10.267   5.156  23.899  0.00  0.00    +0.040 C 
BRANCH  58  60
ATOM     60  OG1 THR A   2       8.422   5.768  22.498  0.00  0.00    -0.390 OA
ATOM     61  HG1 THR A   2       8.517   6.729  22.388  0.00  0.00    +0.210 HD
ENDBRANCH  58  60
ENDBRANCH  48  58
ENDBRANCH  44  48
ENDBRANCH  43  46
BRANCH  43  62
ATOM     62  CB  LEU A   3       5.994   4.004  28.533  0.00  0.00    +0.034 C 
BRANCH  62  63
ATOM     63  CG  LEU A   3       4.602   3.921  27.874  0.00  0.00    -0.015 C 
ATOM     64  CD2 LEU A   3       3.552   3.560  28.928  0.00  0.00    +0.007 C 
ATOM     65  CD1 LEU A   3       4.208   5.232  27.192  0.00  0.00    +0.007 C 
ENDBRANCH  62  63
ENDBRANCH  43  62
ENDBRANCH  39  43
ENDBRANCH  38  40
BRANCH  38  66
ATOM     66  CB  GLN A   4       4.478  -0.641  26.655  0.00  0.00    +0.041 C 
BRANCH  66  67
ATOM     67  CG  GLN A   4       4.040  -2.086  26.428  0.00  0.00    +0.098 C 
BRANCH  67  68
ATOM     68  CD  GLN A   4       3.153  -2.541  27.562  0.00  0.00    +0.211 C 
ATOM     69  OE1 GLN A   4       2.233  -1.866  28.010  0.00  0.00    -0.276 OA
ATOM     70  NE2 GLN A   4       3.389  -3.805  28.015  0.00  0.00    -0.329 N 
ATOM     71 HE21 GLN A   4       4.293  -4.242  27.889  0.00  0.00    +0.145 HD
ATOM     72 HE22 GLN A   4       2.867  -4.080  28.838  0.00  0.00    +0.145 HD
ENDBRANCH  67  68
ENDBRANCH  66  67
ENDBRANCH  38  66
ENDBRANCH   1  38
TORSDOF 29
ENDMDL
MODEL 17
REMARK VINA RESULT:      -5.6      2.182      8.053
REMARK  Name = ATLQAENV-mmff94.pdb
REMARK  36 active torsions:
REMARK  status: ('A' for Active; 'I' for Inactive)
REMARK    1  A    between atoms: _1  and  _2
REMARK    2  A    between atoms: _2  and  _3
REMARK    3  A    between atoms: _2  and  _5
REMARK    4  A    between atoms: _11  and  _12
REMARK    5  A    between atoms: _12  and  _13
REMARK    6  A    between atoms: _12  and  _15
REMARK    7  A    between atoms: _15  and  _16
REMARK    8  A    between atoms: _15  and  _17
REMARK    9  A    between atoms: _25  and  _26
REMARK   10  A    between atoms: _26  and  _27
REMARK   11  A    between atoms: _26  and  _29
REMARK   12  A    between atoms: _29  and  _30
REMARK   13  A    between atoms: _30  and  _31
REMARK   14  A    between atoms: _30  and  _32
REMARK   15  A    between atoms: _44  and  _45
REMARK   16  A    between atoms: _45  and  _46
REMARK   17  A    between atoms: _45  and  _48
REMARK   18  A    between atoms: _48  and  _49
REMARK   19  A    between atoms: _49  and  _50
REMARK   20  A    between atoms: _61  and  _62
REMARK   21  A    between atoms: _62  and  _63
REMARK   22  A    between atoms: _62  and  _65
REMARK   23  A    between atoms: _71  and  _72
REMARK   24  A    between atoms: _72  and  _73
REMARK   25  A    between atoms: _72  and  _75
REMARK   26  A    between atoms: _75  and  _76
REMARK   27  A    between atoms: _76  and  _77
REMARK   28  A    between atoms: _86  and  _87
REMARK   29  A    between atoms: _87  and  _88
REMARK   30  A    between atoms: _87  and  _90
REMARK   31  A    between atoms: _90  and  _91
REMARK   32  A    between atoms: _100  and  _101
REMARK   33  A    between atoms: _101  and  _102
REMARK   34  A    between atoms: _101  and  _104
REMARK   35  A    between atoms: _104  and  _105
REMARK   36  A    between atoms: _104  and  _106
REMARK                            x       y       z     vdW  Elec       q    Type
REMARK                         _______ _______ _______ _____ _____    ______ ____
ROOT
ATOM      1  C   GLN A   4       7.377  -1.409  21.518  0.00  0.00    +0.234 C 
ATOM      2  O   GLN A   4       8.587  -1.190  21.442  0.00  0.00    -0.274 OA
ATOM      3  N   ALA A   5       6.443  -0.662  20.848  0.00  0.00    -0.303 N 
ATOM      4  H   ALA A   5       5.450  -0.874  20.912  0.00  0.00    +0.149 HD
ENDROOT
BRANCH   3   5
ATOM      5  CA  ALA A   5       6.797   0.490  20.028  0.00  0.00    +0.156 C 
ATOM      6  CB  ALA A   5       6.568   0.216  18.546  0.00  0.00    +0.038 C 
BRANCH   5   7
ATOM      7  C   ALA A   5       5.931   1.678  20.485  0.00  0.00    +0.234 C 
ATOM      8  N   GLU A   6       6.312   2.228  21.681  0.00  0.00    -0.302 N 
ATOM      9  H   GLU A   6       7.006   1.764  22.258  0.00  0.00    +0.150 HD
ATOM     10  O   ALA A   5       5.006   2.106  19.797  0.00  0.00    -0.274 OA
BRANCH   8  11
ATOM     11  CA  GLU A   6       5.587   3.322  22.330  0.00  0.00    +0.159 C 
BRANCH  11  12
ATOM     12  C   GLU A   6       6.664   4.368  22.674  0.00  0.00    +0.234 C 
ATOM     13  O   GLU A   6       7.161   5.107  21.819  0.00  0.00    -0.274 OA
ATOM     14  N   ASN A   7       7.043   4.426  23.992  0.00  0.00    -0.302 N 
ATOM     15  H   ASN A   7       6.700   3.713  24.636  0.00  0.00    +0.150 HD
BRANCH  14  16
ATOM     16  CA  ASN A   7       8.192   5.208  24.446  0.00  0.00    +0.168 C 
BRANCH  16  17
ATOM     17  C   ASN A   7       9.450   4.397  24.090  0.00  0.00    +0.234 C 
ATOM     18  N   VAL A   8       9.307   3.034  24.174  0.00  0.00    -0.304 N 
ATOM     19  H   VAL A   8       8.422   2.624  24.454  0.00  0.00    +0.149 HD
ATOM     20  O   ASN A   7      10.485   4.941  23.708  0.00  0.00    -0.274 OA
BRANCH  18  21
ATOM     21  CA  VAL A   8      10.383   2.108  23.835  0.00  0.00    +0.138 C 
BRANCH  21  22
ATOM     22  CB  VAL A   8      10.304   0.786  24.628  0.00  0.00    +0.010 C 
ATOM     23  CG2 VAL A   8      10.832  -0.401  23.812  0.00  0.00    +0.009 C 
ATOM     24  CG1 VAL A   8       8.869   0.479  25.072  0.00  0.00    +0.009 C 
ENDBRANCH  21  22
BRANCH  21  25
ATOM     25  C   VAL A   8      10.248   1.857  22.335  0.00  0.00    +0.245 C 
ATOM     26  O   VAL A   8       9.206   2.019  21.700  0.00  0.00    -0.299 OA
ENDBRANCH  21  25
ENDBRANCH  18  21
ENDBRANCH  16  17
BRANCH  16  27
ATOM     27  CB  ASN A   7       8.203   5.439  25.956  0.00  0.00    +0.127 C 
BRANCH  27  28
ATOM     28  CG  ASN A   7       7.310   4.578  26.822  0.00  0.00    +0.213 C 
ATOM     29  OD1 ASN A   7       7.454   3.356  26.874  0.00  0.00    -0.276 OA
ATOM     30  ND2 ASN A   7       6.402   5.175  27.636  0.00  0.00    -0.329 N 
ATOM     31 HD21 ASN A   7       5.803   4.518  28.119  0.00  0.00    +0.145 HD
ATOM     32 HD22 ASN A   7       5.881   5.974  27.267  0.00  0.00    +0.145 HD
ENDBRANCH  27  28
ENDBRANCH  16  27
ENDBRANCH  14  16
ENDBRANCH  11  12
BRANCH  11  33
ATOM     33  CB  GLU A   6       4.885   2.820  23.594  0.00  0.00    +0.037 C 
BRANCH  33  34
ATOM     34  CG  GLU A   6       3.495   3.417  23.800  0.00  0.00    +0.054 C 
BRANCH  34  35
ATOM     35  CD  GLU A   6       3.505   4.869  24.286  0.00  0.00    +0.042 C 
ATOM     36  OE2 GLU A   6       4.219   5.059  25.311  0.00  0.00    -0.550 OA
ATOM     37  OE1 GLU A   6       2.799   5.684  23.632  0.00  0.00    -0.550 OA
ENDBRANCH  34  35
ENDBRANCH  33  34
ENDBRANCH  11  33
ENDBRANCH   8  11
ENDBRANCH   5   7
ENDBRANCH   3   5
BRANCH   1  38
ATOM     38  CA  GLN A   4       6.813  -2.528  22.412  0.00  0.00    +0.159 C 
BRANCH  38  40
ATOM     39  C   LEU A   3       5.847  -2.284  24.694  0.00  0.00    +0.234 C 
ATOM     40  N   GLN A   4       5.955  -1.862  23.393  0.00  0.00    -0.302 N 
ATOM     41  H   GLN A   4       5.376  -1.105  23.041  0.00  0.00    +0.150 HD
ATOM     42  O   LEU A   3       6.496  -3.224  25.151  0.00  0.00    -0.274 OA
BRANCH  39  43
ATOM     43  CA  LEU A   3       4.875  -1.463  25.567  0.00  0.00    +0.159 C 
BRANCH  43  46
ATOM     44  C   THR A   2       3.154  -2.785  26.789  0.00  0.00    +0.236 C 
ATOM     45  O   THR A   2       2.231  -2.390  26.076  0.00  0.00    -0.274 OA
ATOM     46  N   LEU A   3       4.447  -2.345  26.649  0.00  0.00    -0.302 N 
ATOM     47  H   LEU A   3       5.195  -2.788  27.178  0.00  0.00    +0.150 HD
BRANCH  44  48
ATOM     48  CA  THR A   2       2.937  -3.835  27.886  0.00  0.00    +0.187 C 
BRANCH  48  50
ATOM     49  C   ALA A   1       4.364  -5.795  27.330  0.00  0.00    +0.230 C 
ATOM     50  N   THR A   2       4.190  -4.591  27.967  0.00  0.00    -0.301 N 
ATOM     51  H   THR A   2       4.895  -4.237  28.603  0.00  0.00    +0.150 HD
ATOM     52  O   ALA A   1       3.545  -6.281  26.552  0.00  0.00    -0.274 OA
BRANCH  49  53
ATOM     53  CA  ALA A   1       5.709  -6.483  27.641  0.00  0.00    +0.135 C 
ATOM     54  CB  ALA A   1       5.956  -6.463  29.143  0.00  0.00    +0.033 C 
BRANCH  53  55
ATOM     55  N   ALA A   1       6.801  -5.783  26.934  0.00  0.00    -0.320 NA
ATOM     56  H1  ALA A   1       7.677  -6.242  27.192  0.00  0.00    +0.119 HD
ATOM     57  H2  ALA A   1       6.701  -6.012  25.939  0.00  0.00    +0.119 HD
ENDBRANCH  53  55
ENDBRANCH  49  53
ENDBRANCH  48  50
BRANCH  48  58
ATOM     58  CB  THR A   2       2.616  -3.120  29.222  0.00  0.00    +0.141 C 
ATOM     59  CG2 THR A   2       3.690  -3.354  30.282  0.00  0.00    +0.040 C 
BRANCH  58  60
ATOM     60  OG1 THR A   2       2.497  -1.706  29.015  0.00  0.00    -0.390 OA
ATOM     61  HG1 THR A   2       3.387  -1.319  29.076  0.00  0.00    +0.210 HD
ENDBRANCH  58  60
ENDBRANCH  48  58
ENDBRANCH  44  48
ENDBRANCH  43  46
BRANCH  43  62
ATOM     62  CB  LEU A   3       5.591  -0.212  26.098  0.00  0.00    +0.034 C 
BRANCH  62  63
ATOM     63  CG  LEU A   3       4.977   0.396  27.375  0.00  0.00    -0.015 C 
ATOM     64  CD2 LEU A   3       6.072   0.609  28.424  0.00  0.00    +0.007 C 
ATOM     65  CD1 LEU A   3       4.271   1.724  27.100  0.00  0.00    +0.007 C 
ENDBRANCH  62  63
ENDBRANCH  43  62
ENDBRANCH  39  43
ENDBRANCH  38  40
BRANCH  38  66
ATOM     66  CB  GLN A   4       6.005  -3.541  21.591  0.00  0.00    +0.041 C 
BRANCH  66  67
ATOM     67  CG  GLN A   4       6.315  -4.995  21.938  0.00  0.00    +0.098 C 
BRANCH  67  68
ATOM     68  CD  GLN A   4       5.209  -5.571  22.791  0.00  0.00    +0.211 C 
ATOM     69  OE1 GLN A   4       4.073  -5.767  22.377  0.00  0.00    -0.276 OA
ATOM     70  NE2 GLN A   4       5.577  -5.939  24.050  0.00  0.00    -0.329 N 
ATOM     71 HE21 GLN A   4       6.381  -5.522  24.501  0.00  0.00    +0.145 HD
ATOM     72 HE22 GLN A   4       4.822  -6.232  24.659  0.00  0.00    +0.145 HD
ENDBRANCH  67  68
ENDBRANCH  66  67
ENDBRANCH  38  66
ENDBRANCH   1  38
TORSDOF 29
ENDMDL
MODEL 18
REMARK VINA RESULT:      -5.6      2.233      8.752
REMARK  Name = ATLQAENV-mmff94.pdb
REMARK  36 active torsions:
REMARK  status: ('A' for Active; 'I' for Inactive)
REMARK    1  A    between atoms: _1  and  _2
REMARK    2  A    between atoms: _2  and  _3
REMARK    3  A    between atoms: _2  and  _5
REMARK    4  A    between atoms: _11  and  _12
REMARK    5  A    between atoms: _12  and  _13
REMARK    6  A    between atoms: _12  and  _15
REMARK    7  A    between atoms: _15  and  _16
REMARK    8  A    between atoms: _15  and  _17
REMARK    9  A    between atoms: _25  and  _26
REMARK   10  A    between atoms: _26  and  _27
REMARK   11  A    between atoms: _26  and  _29
REMARK   12  A    between atoms: _29  and  _30
REMARK   13  A    between atoms: _30  and  _31
REMARK   14  A    between atoms: _30  and  _32
REMARK   15  A    between atoms: _44  and  _45
REMARK   16  A    between atoms: _45  and  _46
REMARK   17  A    between atoms: _45  and  _48
REMARK   18  A    between atoms: _48  and  _49
REMARK   19  A    between atoms: _49  and  _50
REMARK   20  A    between atoms: _61  and  _62
REMARK   21  A    between atoms: _62  and  _63
REMARK   22  A    between atoms: _62  and  _65
REMARK   23  A    between atoms: _71  and  _72
REMARK   24  A    between atoms: _72  and  _73
REMARK   25  A    between atoms: _72  and  _75
REMARK   26  A    between atoms: _75  and  _76
REMARK   27  A    between atoms: _76  and  _77
REMARK   28  A    between atoms: _86  and  _87
REMARK   29  A    between atoms: _87  and  _88
REMARK   30  A    between atoms: _87  and  _90
REMARK   31  A    between atoms: _90  and  _91
REMARK   32  A    between atoms: _100  and  _101
REMARK   33  A    between atoms: _101  and  _102
REMARK   34  A    between atoms: _101  and  _104
REMARK   35  A    between atoms: _104  and  _105
REMARK   36  A    between atoms: _104  and  _106
REMARK                            x       y       z     vdW  Elec       q    Type
REMARK                         _______ _______ _______ _____ _____    ______ ____
ROOT
ATOM      1  C   GLN A   4       5.196   0.591  26.174  0.00  0.00    +0.234 C 
ATOM      2  O   GLN A   4       5.312   0.334  24.974  0.00  0.00    -0.274 OA
ATOM      3  N   ALA A   5       4.387   1.592  26.645  0.00  0.00    -0.303 N 
ATOM      4  H   ALA A   5       4.293   1.773  27.641  0.00  0.00    +0.149 HD
ENDROOT
BRANCH   3   5
ATOM      5  CA  ALA A   5       3.631   2.474  25.763  0.00  0.00    +0.156 C 
ATOM      6  CB  ALA A   5       2.225   2.728  26.293  0.00  0.00    +0.038 C 
BRANCH   5   7
ATOM      7  C   ALA A   5       4.401   3.802  25.653  0.00  0.00    +0.234 C 
ATOM      8  N   GLU A   6       5.751   3.659  25.461  0.00  0.00    -0.302 N 
ATOM      9  H   GLU A   6       6.185   2.746  25.550  0.00  0.00    +0.150 HD
ATOM     10  O   ALA A   5       3.825   4.889  25.695  0.00  0.00    -0.274 OA
BRANCH   8  11
ATOM     11  CA  GLU A   6       6.677   4.790  25.395  0.00  0.00    +0.159 C 
BRANCH  11  12
ATOM     12  C   GLU A   6       7.464   4.589  24.086  0.00  0.00    +0.234 C 
ATOM     13  O   GLU A   6       8.092   5.505  23.548  0.00  0.00    -0.274 OA
ATOM     14  N   ASN A   7       7.421   3.326  23.549  0.00  0.00    -0.302 N 
ATOM     15  H   ASN A   7       6.789   2.638  23.958  0.00  0.00    +0.150 HD
BRANCH  14  16
ATOM     16  CA  ASN A   7       7.933   3.021  22.215  0.00  0.00    +0.168 C 
BRANCH  16  17
ATOM     17  C   ASN A   7       6.858   2.176  21.509  0.00  0.00    +0.234 C 
ATOM     18  N   VAL A   8       7.304   0.990  20.980  0.00  0.00    -0.304 N 
ATOM     19  H   VAL A   8       8.279   0.720  21.066  0.00  0.00    +0.149 HD
ATOM     20  O   ASN A   7       5.679   2.524  21.474  0.00  0.00    -0.274 OA
BRANCH  18  21
ATOM     21  CA  VAL A   8       6.417   0.044  20.310  0.00  0.00    +0.138 C 
BRANCH  21  22
ATOM     22  CB  VAL A   8       6.639  -0.004  18.784  0.00  0.00    +0.010 C 
ATOM     23  CG2 VAL A   8       5.943   1.160  18.069  0.00  0.00    +0.009 C 
ATOM     24  CG1 VAL A   8       6.137  -1.322  18.182  0.00  0.00    +0.009 C 
ENDBRANCH  21  22
BRANCH  21  25
ATOM     25  C   VAL A   8       6.709  -1.312  20.950  0.00  0.00    +0.245 C 
ATOM     26  O   VAL A   8       6.650  -1.531  22.160  0.00  0.00    -0.299 OA
ENDBRANCH  21  25
ENDBRANCH  18  21
ENDBRANCH  16  17
BRANCH  16  27
ATOM     27  CB  ASN A   7       9.223   2.203  22.237  0.00  0.00    +0.127 C 
BRANCH  27  28
ATOM     28  CG  ASN A   7      10.274   2.546  23.270  0.00  0.00    +0.213 C 
ATOM     29  OD1 ASN A   7      10.645   1.721  24.104  0.00  0.00    -0.276 OA
ATOM     30  ND2 ASN A   7      10.894   3.753  23.207  0.00  0.00    -0.329 N 
ATOM     31 HD21 ASN A   7      11.526   3.920  23.980  0.00  0.00    +0.145 HD
ATOM     32 HD22 ASN A   7      10.324   4.573  22.989  0.00  0.00    +0.145 HD
ENDBRANCH  27  28
ENDBRANCH  16  27
ENDBRANCH  14  16
ENDBRANCH  11  12
BRANCH  11  33
ATOM     33  CB  GLU A   6       7.615   4.783  26.605  0.00  0.00    +0.037 C 
BRANCH  33  34
ATOM     34  CG  GLU A   6       6.936   5.198  27.909  0.00  0.00    +0.054 C 
BRANCH  34  35
ATOM     35  CD  GLU A   6       6.828   4.073  28.942  0.00  0.00    +0.042 C 
ATOM     36  OE2 GLU A   6       7.431   4.316  30.025  0.00  0.00    -0.550 OA
ATOM     37  OE1 GLU A   6       6.182   3.049  28.591  0.00  0.00    -0.550 OA
ENDBRANCH  34  35
ENDBRANCH  33  34
ENDBRANCH  11  33
ENDBRANCH   8  11
ENDBRANCH   5   7
ENDBRANCH   3   5
BRANCH   1  38
ATOM     38  CA  GLN A   4       5.990  -0.178  27.245  0.00  0.00    +0.159 C 
BRANCH  38  40
ATOM     39  C   LEU A   3       4.272  -1.899  27.780  0.00  0.00    +0.234 C 
ATOM     40  N   GLN A   4       5.474  -1.547  27.221  0.00  0.00    -0.302 N 
ATOM     41  H   GLN A   4       6.093  -2.252  26.829  0.00  0.00    +0.150 HD
ATOM     42  O   LEU A   3       3.512  -1.085  28.304  0.00  0.00    -0.274 OA
BRANCH  39  43
ATOM     43  CA  LEU A   3       3.914  -3.396  27.670  0.00  0.00    +0.159 C 
BRANCH  43  46
ATOM     44  C   THR A   2       4.212  -3.977  25.267  0.00  0.00    +0.236 C 
ATOM     45  O   THR A   2       3.054  -3.682  24.970  0.00  0.00    -0.274 OA
ATOM     46  N   LEU A   3       4.692  -3.924  26.552  0.00  0.00    -0.302 N 
ATOM     47  H   LEU A   3       5.684  -4.059  26.731  0.00  0.00    +0.150 HD
BRANCH  44  48
ATOM     48  CA  THR A   2       5.234  -4.407  24.206  0.00  0.00    +0.187 C 
BRANCH  48  50
ATOM     49  C   ALA A   1       7.678  -4.839  24.374  0.00  0.00    +0.230 C 
ATOM     50  N   THR A   2       6.431  -4.810  24.949  0.00  0.00    -0.301 N 
ATOM     51  H   THR A   2       6.286  -5.171  25.885  0.00  0.00    +0.150 HD
ATOM     52  O   ALA A   1       7.918  -4.424  23.241  0.00  0.00    -0.274 OA
BRANCH  49  53
ATOM     53  CA  ALA A   1       8.781  -5.408  25.289  0.00  0.00    +0.135 C 
ATOM     54  CB  ALA A   1       8.512  -4.993  26.729  0.00  0.00    +0.033 C 
BRANCH  53  55
ATOM     55  N   ALA A   1      10.099  -4.906  24.850  0.00  0.00    -0.320 NA
ATOM     56  H1  ALA A   1       9.939  -4.268  24.068  0.00  0.00    +0.119 HD
ATOM     57  H2  ALA A   1      10.439  -4.285  25.593  0.00  0.00    +0.119 HD
ENDBRANCH  53  55
ENDBRANCH  49  53
ENDBRANCH  48  50
BRANCH  48  58
ATOM     58  CB  THR A   2       4.652  -5.583  23.383  0.00  0.00    +0.141 C 
ATOM     59  CG2 THR A   2       4.386  -6.819  24.237  0.00  0.00    +0.040 C 
BRANCH  58  60
ATOM     60  OG1 THR A   2       3.417  -5.196  22.765  0.00  0.00    -0.390 OA
ATOM     61  HG1 THR A   2       3.573  -5.117  21.808  0.00  0.00    +0.210 HD
ENDBRANCH  58  60
ENDBRANCH  48  58
ENDBRANCH  44  48
ENDBRANCH  43  46
BRANCH  43  62
ATOM     62  CB  LEU A   3       4.255  -4.105  28.989  0.00  0.00    +0.034 C 
BRANCH  62  63
ATOM     63  CG  LEU A   3       4.808  -5.536  28.834  0.00  0.00    -0.015 C 
ATOM     64  CD2 LEU A   3       5.749  -5.856  29.999  0.00  0.00    +0.007 C 
ATOM     65  CD1 LEU A   3       3.692  -6.581  28.780  0.00  0.00    +0.007 C 
ENDBRANCH  62  63
ENDBRANCH  43  62
ENDBRANCH  39  43
ENDBRANCH  38  40
BRANCH  38  66
ATOM     66  CB  GLN A   4       7.493  -0.165  26.939  0.00  0.00    +0.041 C 
BRANCH  66  67
ATOM     67  CG  GLN A   4       8.015  -1.487  26.382  0.00  0.00    +0.098 C 
BRANCH  67  68
ATOM     68  CD  GLN A   4       8.698  -1.255  25.055  0.00  0.00    +0.211 C 
ATOM     69  OE1 GLN A   4       9.635  -1.934  24.653  0.00  0.00    -0.276 OA
ATOM     70  NE2 GLN A   4       8.149  -0.278  24.281  0.00  0.00    -0.329 N 
ATOM     71 HE21 GLN A   4       7.606   0.470  24.694  0.00  0.00    +0.145 HD
ATOM     72 HE22 GLN A   4       8.659  -0.049  23.436  0.00  0.00    +0.145 HD
ENDBRANCH  67  68
ENDBRANCH  66  67
ENDBRANCH  38  66
ENDBRANCH   1  38
TORSDOF 29
ENDMDL
MODEL 19
REMARK VINA RESULT:      -5.5      2.445      6.221
REMARK  Name = ATLQAENV-mmff94.pdb
REMARK  36 active torsions:
REMARK  status: ('A' for Active; 'I' for Inactive)
REMARK    1  A    between atoms: _1  and  _2
REMARK    2  A    between atoms: _2  and  _3
REMARK    3  A    between atoms: _2  and  _5
REMARK    4  A    between atoms: _11  and  _12
REMARK    5  A    between atoms: _12  and  _13
REMARK    6  A    between atoms: _12  and  _15
REMARK    7  A    between atoms: _15  and  _16
REMARK    8  A    between atoms: _15  and  _17
REMARK    9  A    between atoms: _25  and  _26
REMARK   10  A    between atoms: _26  and  _27
REMARK   11  A    between atoms: _26  and  _29
REMARK   12  A    between atoms: _29  and  _30
REMARK   13  A    between atoms: _30  and  _31
REMARK   14  A    between atoms: _30  and  _32
REMARK   15  A    between atoms: _44  and  _45
REMARK   16  A    between atoms: _45  and  _46
REMARK   17  A    between atoms: _45  and  _48
REMARK   18  A    between atoms: _48  and  _49
REMARK   19  A    between atoms: _49  and  _50
REMARK   20  A    between atoms: _61  and  _62
REMARK   21  A    between atoms: _62  and  _63
REMARK   22  A    between atoms: _62  and  _65
REMARK   23  A    between atoms: _71  and  _72
REMARK   24  A    between atoms: _72  and  _73
REMARK   25  A    between atoms: _72  and  _75
REMARK   26  A    between atoms: _75  and  _76
REMARK   27  A    between atoms: _76  and  _77
REMARK   28  A    between atoms: _86  and  _87
REMARK   29  A    between atoms: _87  and  _88
REMARK   30  A    between atoms: _87  and  _90
REMARK   31  A    between atoms: _90  and  _91
REMARK   32  A    between atoms: _100  and  _101
REMARK   33  A    between atoms: _101  and  _102
REMARK   34  A    between atoms: _101  and  _104
REMARK   35  A    between atoms: _104  and  _105
REMARK   36  A    between atoms: _104  and  _106
REMARK                            x       y       z     vdW  Elec       q    Type
REMARK                         _______ _______ _______ _____ _____    ______ ____
ROOT
ATOM      1  C   GLN A   4       7.485  -0.453  26.084  0.00  0.00    +0.234 C 
ATOM      2  O   GLN A   4       6.999  -1.363  25.410  0.00  0.00    -0.274 OA
ATOM      3  N   ALA A   5       8.559   0.289  25.666  0.00  0.00    -0.303 N 
ATOM      4  H   ALA A   5       8.932   1.047  26.233  0.00  0.00    +0.149 HD
ENDROOT
BRANCH   3   5
ATOM      5  CA  ALA A   5       9.253   0.032  24.409  0.00  0.00    +0.156 C 
ATOM      6  CB  ALA A   5       9.732  -1.411  24.316  0.00  0.00    +0.038 C 
BRANCH   5   7
ATOM      7  C   ALA A   5       8.276   0.339  23.261  0.00  0.00    +0.234 C 
ATOM      8  N   GLU A   6       7.878  -0.761  22.547  0.00  0.00    -0.302 N 
ATOM      9  H   GLU A   6       8.333  -1.656  22.694  0.00  0.00    +0.150 HD
ATOM     10  O   ALA A   5       7.867   1.480  23.047  0.00  0.00    -0.274 OA
BRANCH   8  11
ATOM     11  CA  GLU A   6       7.004  -0.686  21.375  0.00  0.00    +0.159 C 
BRANCH  11  12
ATOM     12  C   GLU A   6       6.114  -1.941  21.457  0.00  0.00    +0.234 C 
ATOM     13  O   GLU A   6       5.581  -2.436  20.460  0.00  0.00    -0.274 OA
ATOM     14  N   ASN A   7       5.946  -2.475  22.710  0.00  0.00    -0.302 N 
ATOM     15  H   ASN A   7       6.300  -1.961  23.517  0.00  0.00    +0.150 HD
BRANCH  14  16
ATOM     16  CA  ASN A   7       4.973  -3.530  22.991  0.00  0.00    +0.168 C 
BRANCH  16  17
ATOM     17  C   ASN A   7       4.681  -3.473  24.500  0.00  0.00    +0.234 C 
ATOM     18  N   VAL A   8       5.431  -4.325  25.272  0.00  0.00    -0.304 N 
ATOM     19  H   VAL A   8       6.121  -4.936  24.846  0.00  0.00    +0.149 HD
ATOM     20  O   ASN A   7       3.868  -2.680  24.974  0.00  0.00    -0.274 OA
BRANCH  18  21
ATOM     21  CA  VAL A   8       5.316  -4.378  26.726  0.00  0.00    +0.138 C 
BRANCH  21  22
ATOM     22  CB  VAL A   8       4.714  -5.708  27.228  0.00  0.00    +0.010 C 
ATOM     23  CG2 VAL A   8       3.458  -6.100  26.441  0.00  0.00    +0.009 C 
ATOM     24  CG1 VAL A   8       4.359  -5.639  28.719  0.00  0.00    +0.009 C 
ENDBRANCH  21  22
BRANCH  21  25
ATOM     25  C   VAL A   8       6.735  -4.184  27.255  0.00  0.00    +0.245 C 
ATOM     26  O   VAL A   8       7.517  -5.106  27.487  0.00  0.00    -0.299 OA
ENDBRANCH  21  25
ENDBRANCH  18  21
ENDBRANCH  16  17
BRANCH  16  27
ATOM     27  CB  ASN A   7       5.496  -4.930  22.674  0.00  0.00    +0.127 C 
BRANCH  27  28
ATOM     28  CG  ASN A   7       6.989  -5.124  22.529  0.00  0.00    +0.213 C 
ATOM     29  OD1 ASN A   7       7.784  -4.540  23.265  0.00  0.00    -0.276 OA
ATOM     30  ND2 ASN A   7       7.454  -6.040  21.642  0.00  0.00    -0.329 N 
ATOM     31 HD21 ASN A   7       8.463  -6.047  21.563  0.00  0.00    +0.145 HD
ATOM     32 HD22 ASN A   7       6.995  -6.100  20.730  0.00  0.00    +0.145 HD
ENDBRANCH  27  28
ENDBRANCH  16  27
ENDBRANCH  14  16
ENDBRANCH  11  12
BRANCH  11  33
ATOM     33  CB  GLU A   6       7.836  -0.685  20.090  0.00  0.00    +0.037 C 
BRANCH  33  34
ATOM     34  CG  GLU A   6       7.453   0.423  19.113  0.00  0.00    +0.054 C 
BRANCH  34  35
ATOM     35  CD  GLU A   6       6.044   0.284  18.531  0.00  0.00    +0.042 C 
ATOM     36  OE2 GLU A   6       5.960  -0.557  17.592  0.00  0.00    -0.550 OA
ATOM     37  OE1 GLU A   6       5.155   1.024  19.032  0.00  0.00    -0.550 OA
ENDBRANCH  34  35
ENDBRANCH  33  34
ENDBRANCH  11  33
ENDBRANCH   8  11
ENDBRANCH   5   7
ENDBRANCH   3   5
BRANCH   1  38
ATOM     38  CA  GLN A   4       6.941  -0.102  27.480  0.00  0.00    +0.159 C 
BRANCH  38  40
ATOM     39  C   LEU A   3       7.042   2.076  28.683  0.00  0.00    +0.234 C 
ATOM     40  N   GLN A   4       6.869   1.359  27.526  0.00  0.00    -0.302 N 
ATOM     41  H   GLN A   4       6.608   1.822  26.660  0.00  0.00    +0.150 HD
ATOM     42  O   LEU A   3       7.315   1.552  29.763  0.00  0.00    -0.274 OA
BRANCH  39  43
ATOM     43  CA  LEU A   3       6.907   3.605  28.528  0.00  0.00    +0.159 C 
BRANCH  43  46
ATOM     44  C   THR A   2       7.598   4.949  26.549  0.00  0.00    +0.236 C 
ATOM     45  O   THR A   2       8.136   5.822  27.231  0.00  0.00    -0.274 OA
ATOM     46  N   LEU A   3       6.934   3.878  27.094  0.00  0.00    -0.302 N 
ATOM     47  H   LEU A   3       6.611   3.122  26.496  0.00  0.00    +0.150 HD
BRANCH  44  48
ATOM     48  CA  THR A   2       7.651   4.974  25.016  0.00  0.00    +0.187 C 
BRANCH  48  50
ATOM     49  C   ALA A   1       9.843   4.678  23.878  0.00  0.00    +0.230 C 
ATOM     50  N   THR A   2       8.823   4.175  24.647  0.00  0.00    -0.301 N 
ATOM     51  H   THR A   2       8.801   3.192  24.897  0.00  0.00    +0.150 HD
ATOM     52  O   ALA A   1       9.923   5.856  23.536  0.00  0.00    -0.274 OA
BRANCH  49  53
ATOM     53  CA  ALA A   1      10.920   3.640  23.502  0.00  0.00    +0.135 C 
ATOM     54  CB  ALA A   1      12.223   4.354  23.170  0.00  0.00    +0.033 C 
BRANCH  53  55
ATOM     55  N   ALA A   1      10.463   2.846  22.343  0.00  0.00    -0.320 NA
ATOM     56  H1  ALA A   1      11.291   2.580  21.808  0.00  0.00    +0.119 HD
ATOM     57  H2  ALA A   1      10.128   1.951  22.715  0.00  0.00    +0.119 HD
ENDBRANCH  53  55
ENDBRANCH  49  53
ENDBRANCH  48  50
BRANCH  48  58
ATOM     58  CB  THR A   2       6.345   4.365  24.449  0.00  0.00    +0.141 C 
ATOM     59  CG2 THR A   2       5.185   5.356  24.462  0.00  0.00    +0.040 C 
BRANCH  58  60
ATOM     60  OG1 THR A   2       6.543   3.931  23.096  0.00  0.00    -0.390 OA
ATOM     61  HG1 THR A   2       7.428   4.220  22.816  0.00  0.00    +0.210 HD
ENDBRANCH  58  60
ENDBRANCH  48  58
ENDBRANCH  44  48
ENDBRANCH  43  46
BRANCH  43  62
ATOM     62  CB  LEU A   3       5.595   4.074  29.175  0.00  0.00    +0.034 C 
BRANCH  62  63
ATOM     63  CG  LEU A   3       4.312   3.559  28.492  0.00  0.00    -0.015 C 
ATOM     64  CD2 LEU A   3       3.484   2.746  29.492  0.00  0.00    +0.007 C 
ATOM     65  CD1 LEU A   3       3.459   4.698  27.933  0.00  0.00    +0.007 C 
ENDBRANCH  62  63
ENDBRANCH  43  62
ENDBRANCH  39  43
ENDBRANCH  38  40
BRANCH  38  66
ATOM     66  CB  GLN A   4       5.553  -0.716  27.707  0.00  0.00    +0.041 C 
BRANCH  66  67
ATOM     67  CG  GLN A   4       4.420   0.083  27.067  0.00  0.00    +0.098 C 
BRANCH  67  68
ATOM     68  CD  GLN A   4       3.086  -0.503  27.463  0.00  0.00    +0.211 C 
ATOM     69  OE1 GLN A   4       2.055  -0.319  26.828  0.00  0.00    -0.276 OA
ATOM     70  NE2 GLN A   4       3.112  -1.330  28.546  0.00  0.00    -0.329 N 
ATOM     71 HE21 GLN A   4       3.845  -1.255  29.241  0.00  0.00    +0.145 HD
ATOM     72 HE22 GLN A   4       2.210  -1.648  28.877  0.00  0.00    +0.145 HD
ENDBRANCH  67  68
ENDBRANCH  66  67
ENDBRANCH  38  66
ENDBRANCH   1  38
TORSDOF 29
ENDMDL
MODEL 20
REMARK VINA RESULT:      -5.5      2.432      7.245
REMARK  Name = ATLQAENV-mmff94.pdb
REMARK  36 active torsions:
REMARK  status: ('A' for Active; 'I' for Inactive)
REMARK    1  A    between atoms: _1  and  _2
REMARK    2  A    between atoms: _2  and  _3
REMARK    3  A    between atoms: _2  and  _5
REMARK    4  A    between atoms: _11  and  _12
REMARK    5  A    between atoms: _12  and  _13
REMARK    6  A    between atoms: _12  and  _15
REMARK    7  A    between atoms: _15  and  _16
REMARK    8  A    between atoms: _15  and  _17
REMARK    9  A    between atoms: _25  and  _26
REMARK   10  A    between atoms: _26  and  _27
REMARK   11  A    between atoms: _26  and  _29
REMARK   12  A    between atoms: _29  and  _30
REMARK   13  A    between atoms: _30  and  _31
REMARK   14  A    between atoms: _30  and  _32
REMARK   15  A    between atoms: _44  and  _45
REMARK   16  A    between atoms: _45  and  _46
REMARK   17  A    between atoms: _45  and  _48
REMARK   18  A    between atoms: _48  and  _49
REMARK   19  A    between atoms: _49  and  _50
REMARK   20  A    between atoms: _61  and  _62
REMARK   21  A    between atoms: _62  and  _63
REMARK   22  A    between atoms: _62  and  _65
REMARK   23  A    between atoms: _71  and  _72
REMARK   24  A    between atoms: _72  and  _73
REMARK   25  A    between atoms: _72  and  _75
REMARK   26  A    between atoms: _75  and  _76
REMARK   27  A    between atoms: _76  and  _77
REMARK   28  A    between atoms: _86  and  _87
REMARK   29  A    between atoms: _87  and  _88
REMARK   30  A    between atoms: _87  and  _90
REMARK   31  A    between atoms: _90  and  _91
REMARK   32  A    between atoms: _100  and  _101
REMARK   33  A    between atoms: _101  and  _102
REMARK   34  A    between atoms: _101  and  _104
REMARK   35  A    between atoms: _104  and  _105
REMARK   36  A    between atoms: _104  and  _106
REMARK                            x       y       z     vdW  Elec       q    Type
REMARK                         _______ _______ _______ _____ _____    ______ ____
ROOT
ATOM      1  C   GLN A   4       7.393  -1.958  26.075  0.00  0.00    +0.234 C 
ATOM      2  O   GLN A   4       7.098  -1.738  24.899  0.00  0.00    -0.274 OA
ATOM      3  N   ALA A   5       8.273  -1.179  26.779  0.00  0.00    -0.303 N 
ATOM      4  H   ALA A   5       8.487  -1.369  27.755  0.00  0.00    +0.149 HD
ENDROOT
BRANCH   3   5
ATOM      5  CA  ALA A   5       8.976  -0.049  26.182  0.00  0.00    +0.156 C 
ATOM      6  CB  ALA A   5       9.901  -0.495  25.056  0.00  0.00    +0.038 C 
BRANCH   5   7
ATOM      7  C   ALA A   5       7.920   0.931  25.642  0.00  0.00    +0.234 C 
ATOM      8  N   GLU A   6       8.115   1.311  24.340  0.00  0.00    -0.302 N 
ATOM      9  H   GLU A   6       8.977   1.071  23.862  0.00  0.00    +0.150 HD
ATOM     10  O   ALA A   5       6.967   1.297  26.329  0.00  0.00    -0.274 OA
BRANCH   8  11
ATOM     11  CA  GLU A   6       7.266   2.286  23.652  0.00  0.00    +0.159 C 
BRANCH  11  12
ATOM     12  C   GLU A   6       6.701   1.534  22.432  0.00  0.00    +0.234 C 
ATOM     13  O   GLU A   6       5.879   2.047  21.666  0.00  0.00    -0.274 OA
ATOM     14  N   ASN A   7       7.163   0.255  22.249  0.00  0.00    -0.302 N 
ATOM     15  H   ASN A   7       7.740  -0.169  22.974  0.00  0.00    +0.150 HD
BRANCH  14  16
ATOM     16  CA  ASN A   7       6.576  -0.661  21.272  0.00  0.00    +0.168 C 
BRANCH  16  17
ATOM     17  C   ASN A   7       6.898  -2.087  21.752  0.00  0.00    +0.234 C 
ATOM     18  N   VAL A   8       5.804  -2.885  21.981  0.00  0.00    -0.304 N 
ATOM     19  H   VAL A   8       4.864  -2.529  21.834  0.00  0.00    +0.149 HD
ATOM     20  O   ASN A   7       8.055  -2.487  21.868  0.00  0.00    -0.274 OA
BRANCH  18  21
ATOM     21  CA  VAL A   8       5.920  -4.278  22.402  0.00  0.00    +0.138 C 
BRANCH  21  22
ATOM     22  CB  VAL A   8       4.600  -4.842  22.968  0.00  0.00    +0.010 C 
ATOM     23  CG2 VAL A   8       3.977  -3.904  24.008  0.00  0.00    +0.009 C 
ATOM     24  CG1 VAL A   8       4.804  -6.221  23.608  0.00  0.00    +0.009 C 
ENDBRANCH  21  22
BRANCH  21  25
ATOM     25  C   VAL A   8       6.356  -5.045  21.156  0.00  0.00    +0.245 C 
ATOM     26  O   VAL A   8       5.836  -4.913  20.048  0.00  0.00    -0.299 OA
ENDBRANCH  21  25
ENDBRANCH  18  21
ENDBRANCH  16  17
BRANCH  16  27
ATOM     27  CB  ASN A   7       7.162  -0.502  19.870  0.00  0.00    +0.127 C 
BRANCH  27  28
ATOM     28  CG  ASN A   7       6.231  -0.119  18.741  0.00  0.00    +0.213 C 
ATOM     29  OD1 ASN A   7       6.072  -0.852  17.766  0.00  0.00    -0.276 OA
ATOM     30  ND2 ASN A   7       5.478   1.005  18.857  0.00  0.00    -0.329 N 
ATOM     31 HD21 ASN A   7       4.943   1.218  18.024  0.00  0.00    +0.145 HD
ATOM     32 HD22 ASN A   7       5.917   1.837  19.257  0.00  0.00    +0.145 HD
ENDBRANCH  27  28
ENDBRANCH  16  27
ENDBRANCH  14  16
ENDBRANCH  11  12
BRANCH  11  33
ATOM     33  CB  GLU A   6       8.093   3.498  23.215  0.00  0.00    +0.037 C 
BRANCH  33  34
ATOM     34  CG  GLU A   6       9.227   3.845  24.177  0.00  0.00    +0.054 C 
BRANCH  34  35
ATOM     35  CD  GLU A   6      10.626   3.577  23.616  0.00  0.00    +0.042 C 
ATOM     36  OE2 GLU A   6      10.861   2.355  23.395  0.00  0.00    -0.550 OA
ATOM     37  OE1 GLU A   6      11.371   4.582  23.463  0.00  0.00    -0.550 OA
ENDBRANCH  34  35
ENDBRANCH  33  34
ENDBRANCH  11  33
ENDBRANCH   8  11
ENDBRANCH   5   7
ENDBRANCH   3   5
BRANCH   1  38
ATOM     38  CA  GLN A   4       6.818  -3.164  26.840  0.00  0.00    +0.159 C 
BRANCH  38  40
ATOM     39  C   LEU A   3       4.678  -3.477  28.075  0.00  0.00    +0.234 C 
ATOM     40  N   GLN A   4       5.419  -2.833  27.117  0.00  0.00    -0.302 N 
ATOM     41  H   GLN A   4       4.993  -2.141  26.505  0.00  0.00    +0.150 HD
ATOM     42  O   LEU A   3       5.141  -4.350  28.808  0.00  0.00    -0.274 OA
BRANCH  39  43
ATOM     43  CA  LEU A   3       3.217  -2.997  28.200  0.00  0.00    +0.159 C 
BRANCH  43  46
ATOM     44  C   THR A   2       3.521  -0.623  28.885  0.00  0.00    +0.236 C 
ATOM     45  O   THR A   2       3.694  -0.905  30.072  0.00  0.00    -0.274 OA
ATOM     46  N   LEU A   3       3.229  -1.562  27.928  0.00  0.00    -0.302 N 
ATOM     47  H   LEU A   3       3.215  -1.300  26.946  0.00  0.00    +0.150 HD
BRANCH  44  48
ATOM     48  CA  THR A   2       3.648   0.817  28.371  0.00  0.00    +0.187 C 
BRANCH  48  50
ATOM     49  C   ALA A   1       5.282   2.239  29.592  0.00  0.00    +0.230 C 
ATOM     50  N   THR A   2       5.014   1.235  28.695  0.00  0.00    -0.301 N 
ATOM     51  H   THR A   2       5.759   0.822  28.146  0.00  0.00    +0.150 HD
ATOM     52  O   ALA A   1       4.424   2.786  30.282  0.00  0.00    -0.274 OA
BRANCH  49  53
ATOM     53  CA  ALA A   1       6.776   2.607  29.699  0.00  0.00    +0.135 C 
ATOM     54  CB  ALA A   1       7.057   3.846  28.860  0.00  0.00    +0.033 C 
BRANCH  53  55
ATOM     55  N   ALA A   1       7.601   1.475  29.230  0.00  0.00    -0.320 NA
ATOM     56  H1  ALA A   1       8.092   1.782  28.387  0.00  0.00    +0.119 HD
ATOM     57  H2  ALA A   1       8.359   1.362  29.913  0.00  0.00    +0.119 HD
ENDBRANCH  53  55
ENDBRANCH  49  53
ENDBRANCH  48  50
BRANCH  48  58
ATOM     58  CB  THR A   2       3.393   0.839  26.844  0.00  0.00    +0.141 C 
ATOM     59  CG2 THR A   2       3.247   2.256  26.296  0.00  0.00    +0.040 C 
BRANCH  58  60
ATOM     60  OG1 THR A   2       4.474   0.202  26.148  0.00  0.00    -0.390 OA
ATOM     61  HG1 THR A   2       5.011  -0.274  26.803  0.00  0.00    +0.210 HD
ENDBRANCH  58  60
ENDBRANCH  48  58
ENDBRANCH  44  48
ENDBRANCH  43  46
BRANCH  43  62
ATOM     62  CB  LEU A   3       2.337  -3.761  27.198  0.00  0.00    +0.034 C 
BRANCH  62  63
ATOM     63  CG  LEU A   3       1.714  -5.063  27.740  0.00  0.00    -0.015 C 
ATOM     64  CD2 LEU A   3       2.516  -6.268  27.241  0.00  0.00    +0.007 C 
ATOM     65  CD1 LEU A   3       1.663  -5.085  29.269  0.00  0.00    +0.007 C 
ENDBRANCH  62  63
ENDBRANCH  43  62
ENDBRANCH  39  43
ENDBRANCH  38  40
BRANCH  38  66
ATOM     66  CB  GLN A   4       6.911  -4.448  26.006  0.00  0.00    +0.041 C 
BRANCH  66  67
ATOM     67  CG  GLN A   4       8.123  -5.311  26.345  0.00  0.00    +0.098 C 
BRANCH  67  68
ATOM     68  CD  GLN A   4       9.175  -5.171  25.270  0.00  0.00    +0.211 C 
ATOM     69  OE1 GLN A   4       8.943  -4.712  24.158  0.00  0.00    -0.276 OA
ATOM     70  NE2 GLN A   4      10.439  -5.518  25.644  0.00  0.00    -0.329 N 
ATOM     71 HE21 GLN A   4      10.597  -6.161  26.409  0.00  0.00    +0.145 HD
ATOM     72 HE22 GLN A   4      11.130  -5.521  24.903  0.00  0.00    +0.145 HD
ENDBRANCH  67  68
ENDBRANCH  66  67
ENDBRANCH  38  66
ENDBRANCH   1  38
TORSDOF 29
ENDMDL
