MODEL 1
REMARK VINA RESULT:      -6.6      0.000      0.000
REMARK  Name = ATLQAIAS-mmff94.pdb
REMARK  35 active torsions:
REMARK  status: ('A' for Active; 'I' for Inactive)
REMARK    1  A    between atoms: _1  and  _2
REMARK    2  A    between atoms: _2  and  _3
REMARK    3  A    between atoms: _2  and  _5
REMARK    4  A    between atoms: _11  and  _12
REMARK    5  A    between atoms: _12  and  _13
REMARK    6  A    between atoms: _12  and  _15
REMARK    7  A    between atoms: _15  and  _16
REMARK    8  A    between atoms: _15  and  _17
REMARK    9  A    between atoms: _25  and  _26
REMARK   10  A    between atoms: _26  and  _27
REMARK   11  A    between atoms: _26  and  _29
REMARK   12  A    between atoms: _29  and  _30
REMARK   13  A    between atoms: _30  and  _31
REMARK   14  A    between atoms: _30  and  _32
REMARK   15  A    between atoms: _44  and  _45
REMARK   16  A    between atoms: _45  and  _46
REMARK   17  A    between atoms: _45  and  _48
REMARK   18  A    between atoms: _48  and  _49
REMARK   19  A    between atoms: _49  and  _50
REMARK   20  A    between atoms: _61  and  _62
REMARK   21  A    between atoms: _62  and  _63
REMARK   22  A    between atoms: _62  and  _65
REMARK   23  A    between atoms: _71  and  _72
REMARK   24  A    between atoms: _72  and  _73
REMARK   25  A    between atoms: _72  and  _75
REMARK   26  A    between atoms: _75  and  _76
REMARK   27  A    between atoms: _75  and  _77
REMARK   28  A    between atoms: _76  and  _78
REMARK   29  A    between atoms: _90  and  _91
REMARK   30  A    between atoms: _91  and  _92
REMARK   31  A    between atoms: _91  and  _94
REMARK   32  A    between atoms: _100  and  _101
REMARK   33  A    between atoms: _101  and  _102
REMARK   34  A    between atoms: _101  and  _104
REMARK   35  A    between atoms: _104  and  _105
REMARK                            x       y       z     vdW  Elec       q    Type
REMARK                         _______ _______ _______ _____ _____    ______ ____
ROOT
ATOM      1  CA  GLN A   4       6.997  -0.780  21.021  0.00  0.00    +0.159 C 
ENDROOT
BRANCH   1   3
ATOM      2  C   LEU A   3       6.132  -3.063  21.515  0.00  0.00    +0.234 C 
ATOM      3  N   GLN A   4       6.827  -1.941  21.895  0.00  0.00    -0.302 N 
ATOM      4  H   GLN A   4       7.201  -1.859  22.838  0.00  0.00    +0.150 HD
ATOM      5  O   LEU A   3       5.614  -3.181  20.406  0.00  0.00    -0.274 OA
BRANCH   2   6
ATOM      6  CA  LEU A   3       6.077  -4.184  22.575  0.00  0.00    +0.159 C 
BRANCH   6   9
ATOM      7  C   THR A   2       8.127  -4.652  23.911  0.00  0.00    +0.236 C 
ATOM      8  O   THR A   2       8.303  -5.757  23.396  0.00  0.00    -0.274 OA
ATOM      9  N   LEU A   3       7.058  -3.847  23.601  0.00  0.00    -0.302 N 
ATOM     10  H   LEU A   3       7.012  -2.900  23.969  0.00  0.00    +0.150 HD
BRANCH   7  11
ATOM     11  CA  THR A   2       9.113  -4.065  24.929  0.00  0.00    +0.187 C 
BRANCH  11  13
ATOM     12  C   ALA A   1       9.844  -1.909  23.934  0.00  0.00    +0.230 C 
ATOM     13  N   THR A   2       9.026  -2.611  24.786  0.00  0.00    -0.301 N 
ATOM     14  H   THR A   2       8.417  -2.120  25.432  0.00  0.00    +0.150 HD
ATOM     15  O   ALA A   1      10.607  -2.443  23.132  0.00  0.00    -0.274 OA
BRANCH  12  16
ATOM     16  CA  ALA A   1       9.699  -0.377  24.037  0.00  0.00    +0.135 C 
ATOM     17  CB  ALA A   1      10.535   0.295  22.956  0.00  0.00    +0.033 C 
BRANCH  16  18
ATOM     18  N   ALA A   1      10.132   0.079  25.372  0.00  0.00    -0.320 NA
ATOM     19  H1  ALA A   1      10.111   1.104  25.357  0.00  0.00    +0.119 HD
ATOM     20  H2  ALA A   1      11.129  -0.131  25.462  0.00  0.00    +0.119 HD
ENDBRANCH  16  18
ENDBRANCH  12  16
ENDBRANCH  11  13
BRANCH  11  21
ATOM     21  CB  THR A   2       8.707  -4.519  26.353  0.00  0.00    +0.141 C 
ATOM     22  CG2 THR A   2       7.464  -3.799  26.865  0.00  0.00    +0.040 C 
BRANCH  21  23
ATOM     23  OG1 THR A   2       8.437  -5.928  26.365  0.00  0.00    -0.390 OA
ATOM     24  HG1 THR A   2       9.244  -6.387  26.651  0.00  0.00    +0.210 HD
ENDBRANCH  21  23
ENDBRANCH  11  21
ENDBRANCH   7  11
ENDBRANCH   6   9
BRANCH   6  25
ATOM     25  CB  LEU A   3       4.656  -4.274  23.155  0.00  0.00    +0.034 C 
BRANCH  25  26
ATOM     26  CG  LEU A   3       4.047  -5.690  23.169  0.00  0.00    -0.015 C 
ATOM     27  CD2 LEU A   3       4.643  -6.497  24.327  0.00  0.00    +0.007 C 
ATOM     28  CD1 LEU A   3       2.523  -5.662  23.300  0.00  0.00    +0.007 C 
ENDBRANCH  25  26
ENDBRANCH   6  25
ENDBRANCH   2   6
ENDBRANCH   1   3
BRANCH   1  29
ATOM     29  C   GLN A   4       6.942   0.458  21.938  0.00  0.00    +0.234 C 
ATOM     30  O   GLN A   4       7.449   1.530  21.608  0.00  0.00    -0.274 OA
ATOM     31  N   ALA A   5       6.349   0.257  23.157  0.00  0.00    -0.303 N 
ATOM     32  H   ALA A   5       5.886  -0.622  23.377  0.00  0.00    +0.149 HD
BRANCH  31  33
ATOM     33  CA  ALA A   5       6.340   1.271  24.204  0.00  0.00    +0.156 C 
ATOM     34  CB  ALA A   5       5.078   2.120  24.163  0.00  0.00    +0.038 C 
BRANCH  33  35
ATOM     35  C   ALA A   5       6.438   0.533  25.548  0.00  0.00    +0.234 C 
ATOM     36  N   ILE A   6       5.862   1.185  26.609  0.00  0.00    -0.302 N 
ATOM     37  H   ILE A   6       5.350   2.053  26.464  0.00  0.00    +0.150 HD
ATOM     38  O   ALA A   5       6.998  -0.558  25.651  0.00  0.00    -0.274 OA
BRANCH  36  39
ATOM     39  CA  ILE A   6       5.868   0.663  27.978  0.00  0.00    +0.162 C 
BRANCH  39  40
ATOM     40  C   ILE A   6       4.593  -0.207  28.055  0.00  0.00    +0.234 C 
ATOM     41  O   ILE A   6       3.515   0.251  28.437  0.00  0.00    -0.274 OA
ATOM     42  N   ALA A   7       4.752  -1.525  27.706  0.00  0.00    -0.303 N 
ATOM     43  H   ALA A   7       5.668  -1.885  27.451  0.00  0.00    +0.149 HD
BRANCH  42  44
ATOM     44  CA  ALA A   7       3.688  -2.509  27.861  0.00  0.00    +0.156 C 
ATOM     45  CB  ALA A   7       3.495  -3.313  26.582  0.00  0.00    +0.038 C 
BRANCH  44  46
ATOM     46  C   ALA A   7       4.065  -3.424  29.040  0.00  0.00    +0.234 C 
ATOM     47  N   SER A   8       4.437  -4.701  28.699  0.00  0.00    -0.302 N 
ATOM     48  H   SER A   8       4.631  -4.932  27.727  0.00  0.00    +0.150 HD
ATOM     49  O   ALA A   7       4.025  -3.041  30.210  0.00  0.00    -0.274 OA
BRANCH  47  50
ATOM     50  CA  SER A   8       4.941  -5.648  29.694  0.00  0.00    +0.161 C 
BRANCH  50  51
ATOM     51  C   SER A   8       6.068  -6.445  29.054  0.00  0.00    +0.247 C 
ATOM     52  O   SER A   8       6.023  -6.853  27.893  0.00  0.00    -0.299 OA
ENDBRANCH  50  51
BRANCH  50  53
ATOM     53  CB  SER A   8       3.860  -6.604  30.206  0.00  0.00    +0.185 C 
BRANCH  53  54
ATOM     54  OG  SER A   8       3.646  -7.675  29.288  0.00  0.00    -0.393 OA
ATOM     55  H   SER A   8       3.497  -8.475  29.825  0.00  0.00    +0.209 HD
ENDBRANCH  53  54
ENDBRANCH  50  53
ENDBRANCH  47  50
ENDBRANCH  44  46
ENDBRANCH  42  44
ENDBRANCH  39  40
BRANCH  39  56
ATOM     56  CB  ILE A   6       5.848   1.802  29.042  0.00  0.00    +0.015 C 
ATOM     57  CG2 ILE A   6       7.133   1.802  29.885  0.00  0.00    +0.010 C 
BRANCH  56  58
ATOM     58  CG1 ILE A   6       5.624   3.189  28.392  0.00  0.00    +0.002 C 
ATOM     59  CD1 ILE A   6       4.205   3.728  28.517  0.00  0.00    +0.004 C 
ENDBRANCH  56  58
ENDBRANCH  39  56
ENDBRANCH  36  39
ENDBRANCH  33  35
ENDBRANCH  31  33
ENDBRANCH   1  29
BRANCH   1  60
ATOM     60  CB  GLN A   4       5.883  -0.734  19.964  0.00  0.00    +0.041 C 
BRANCH  60  61
ATOM     61  CG  GLN A   4       6.378  -0.393  18.559  0.00  0.00    +0.098 C 
BRANCH  61  62
ATOM     62  CD  GLN A   4       5.812   0.904  18.021  0.00  0.00    +0.211 C 
ATOM     63  OE1 GLN A   4       6.306   1.496  17.067  0.00  0.00    -0.276 OA
ATOM     64  NE2 GLN A   4       4.763   1.441  18.699  0.00  0.00    -0.329 N 
ATOM     65 HE21 GLN A   4       4.302   0.996  19.478  0.00  0.00    +0.145 HD
ATOM     66 HE22 GLN A   4       4.381   2.310  18.347  0.00  0.00    +0.145 HD
ENDBRANCH  61  62
ENDBRANCH  60  61
ENDBRANCH   1  60
TORSDOF 27
ENDMDL
MODEL 2
REMARK VINA RESULT:      -6.3      2.073      7.115
REMARK  Name = ATLQAIAS-mmff94.pdb
REMARK  35 active torsions:
REMARK  status: ('A' for Active; 'I' for Inactive)
REMARK    1  A    between atoms: _1  and  _2
REMARK    2  A    between atoms: _2  and  _3
REMARK    3  A    between atoms: _2  and  _5
REMARK    4  A    between atoms: _11  and  _12
REMARK    5  A    between atoms: _12  and  _13
REMARK    6  A    between atoms: _12  and  _15
REMARK    7  A    between atoms: _15  and  _16
REMARK    8  A    between atoms: _15  and  _17
REMARK    9  A    between atoms: _25  and  _26
REMARK   10  A    between atoms: _26  and  _27
REMARK   11  A    between atoms: _26  and  _29
REMARK   12  A    between atoms: _29  and  _30
REMARK   13  A    between atoms: _30  and  _31
REMARK   14  A    between atoms: _30  and  _32
REMARK   15  A    between atoms: _44  and  _45
REMARK   16  A    between atoms: _45  and  _46
REMARK   17  A    between atoms: _45  and  _48
REMARK   18  A    between atoms: _48  and  _49
REMARK   19  A    between atoms: _49  and  _50
REMARK   20  A    between atoms: _61  and  _62
REMARK   21  A    between atoms: _62  and  _63
REMARK   22  A    between atoms: _62  and  _65
REMARK   23  A    between atoms: _71  and  _72
REMARK   24  A    between atoms: _72  and  _73
REMARK   25  A    between atoms: _72  and  _75
REMARK   26  A    between atoms: _75  and  _76
REMARK   27  A    between atoms: _75  and  _77
REMARK   28  A    between atoms: _76  and  _78
REMARK   29  A    between atoms: _90  and  _91
REMARK   30  A    between atoms: _91  and  _92
REMARK   31  A    between atoms: _91  and  _94
REMARK   32  A    between atoms: _100  and  _101
REMARK   33  A    between atoms: _101  and  _102
REMARK   34  A    between atoms: _101  and  _104
REMARK   35  A    between atoms: _104  and  _105
REMARK                            x       y       z     vdW  Elec       q    Type
REMARK                         _______ _______ _______ _____ _____    ______ ____
ROOT
ATOM      1  CA  GLN A   4       7.627  -2.847  26.148  0.00  0.00    +0.159 C 
ENDROOT
BRANCH   1   3
ATOM      2  C   LEU A   3       6.593  -4.939  27.018  0.00  0.00    +0.234 C 
ATOM      3  N   GLN A   4       6.491  -3.620  26.650  0.00  0.00    -0.302 N 
ATOM      4  H   GLN A   4       5.590  -3.149  26.659  0.00  0.00    +0.150 HD
ATOM      5  O   LEU A   3       7.651  -5.564  26.967  0.00  0.00    -0.274 OA
BRANCH   2   6
ATOM      6  CA  LEU A   3       5.284  -5.573  27.534  0.00  0.00    +0.159 C 
BRANCH   6   9
ATOM      7  C   THR A   2       3.724  -5.398  25.600  0.00  0.00    +0.236 C 
ATOM      8  O   THR A   2       3.401  -4.241  25.867  0.00  0.00    -0.274 OA
ATOM      9  N   LEU A   3       4.594  -6.128  26.374  0.00  0.00    -0.302 N 
ATOM     10  H   LEU A   3       4.915  -7.039  26.057  0.00  0.00    +0.150 HD
BRANCH   7  11
ATOM     11  CA  THR A   2       3.197  -6.121  24.353  0.00  0.00    +0.187 C 
BRANCH  11  13
ATOM     12  C   ALA A   1       4.877  -5.531  22.620  0.00  0.00    +0.230 C 
ATOM     13  N   THR A   2       4.371  -6.425  23.534  0.00  0.00    -0.301 N 
ATOM     14  H   THR A   2       4.732  -7.371  23.578  0.00  0.00    +0.150 HD
ATOM     15  O   ALA A   1       4.481  -4.373  22.512  0.00  0.00    -0.274 OA
BRANCH  12  16
ATOM     16  CA  ALA A   1       6.022  -6.093  21.753  0.00  0.00    +0.135 C 
ATOM     17  CB  ALA A   1       7.360  -5.828  22.430  0.00  0.00    +0.033 C 
BRANCH  16  18
ATOM     18  N   ALA A   1       5.994  -5.466  20.418  0.00  0.00    -0.320 NA
ATOM     19  H1  ALA A   1       5.915  -4.455  20.566  0.00  0.00    +0.119 HD
ATOM     20  H2  ALA A   1       5.101  -5.707  19.982  0.00  0.00    +0.119 HD
ENDBRANCH  16  18
ENDBRANCH  12  16
ENDBRANCH  11  13
BRANCH  11  21
ATOM     21  CB  THR A   2       2.459  -7.412  24.785  0.00  0.00    +0.141 C 
ATOM     22  CG2 THR A   2       1.640  -8.025  23.655  0.00  0.00    +0.040 C 
BRANCH  21  23
ATOM     23  OG1 THR A   2       3.403  -8.396  25.230  0.00  0.00    -0.390 OA
ATOM     24  HG1 THR A   2       4.086  -8.491  24.545  0.00  0.00    +0.210 HD
ENDBRANCH  21  23
ENDBRANCH  11  21
ENDBRANCH   7  11
ENDBRANCH   6   9
BRANCH   6  25
ATOM     25  CB  LEU A   3       5.612  -6.660  28.571  0.00  0.00    +0.034 C 
BRANCH  25  26
ATOM     26  CG  LEU A   3       4.824  -6.559  29.893  0.00  0.00    -0.015 C 
ATOM     27  CD2 LEU A   3       4.842  -5.111  30.394  0.00  0.00    +0.007 C 
ATOM     28  CD1 LEU A   3       3.376  -7.027  29.740  0.00  0.00    +0.007 C 
ENDBRANCH  25  26
ENDBRANCH   6  25
ENDBRANCH   2   6
ENDBRANCH   1   3
BRANCH   1  29
ATOM     29  C   GLN A   4       7.146  -1.385  26.058  0.00  0.00    +0.234 C 
ATOM     30  O   GLN A   4       7.411  -0.674  25.089  0.00  0.00    -0.274 OA
ATOM     31  N   ALA A   5       6.464  -0.927  27.155  0.00  0.00    -0.303 N 
ATOM     32  H   ALA A   5       6.207  -1.553  27.914  0.00  0.00    +0.149 HD
BRANCH  31  33
ATOM     33  CA  ALA A   5       6.064   0.467  27.307  0.00  0.00    +0.156 C 
ATOM     34  CB  ALA A   5       7.264   1.398  27.397  0.00  0.00    +0.038 C 
BRANCH  33  35
ATOM     35  C   ALA A   5       5.205   0.827  26.086  0.00  0.00    +0.234 C 
ATOM     36  N   ILE A   6       5.716   1.823  25.293  0.00  0.00    -0.302 N 
ATOM     37  H   ILE A   6       6.635   2.216  25.487  0.00  0.00    +0.150 HD
ATOM     38  O   ALA A   5       4.139   0.259  25.852  0.00  0.00    -0.274 OA
BRANCH  36  39
ATOM     39  CA  ILE A   6       5.040   2.329  24.096  0.00  0.00    +0.162 C 
BRANCH  39  40
ATOM     40  C   ILE A   6       6.196   2.690  23.134  0.00  0.00    +0.234 C 
ATOM     41  O   ILE A   6       6.304   3.814  22.641  0.00  0.00    -0.274 OA
ATOM     42  N   ALA A   7       7.066   1.670  22.843  0.00  0.00    -0.303 N 
ATOM     43  H   ALA A   7       6.915   0.739  23.222  0.00  0.00    +0.149 HD
BRANCH  42  44
ATOM     44  CA  ALA A   7       8.122   1.802  21.846  0.00  0.00    +0.156 C 
ATOM     45  CB  ALA A   7       9.498   1.760  22.497  0.00  0.00    +0.038 C 
BRANCH  44  46
ATOM     46  C   ALA A   7       7.952   0.659  20.830  0.00  0.00    +0.234 C 
ATOM     47  N   SER A   8       6.675   0.474  20.359  0.00  0.00    -0.302 N 
ATOM     48  H   SER A   8       5.961   1.179  20.534  0.00  0.00    +0.150 HD
ATOM     49  O   ALA A   7       8.894  -0.049  20.471  0.00  0.00    -0.274 OA
BRANCH  47  50
ATOM     50  CA  SER A   8       6.377  -0.489  19.298  0.00  0.00    +0.161 C 
BRANCH  50  51
ATOM     51  C   SER A   8       5.594   0.237  18.214  0.00  0.00    +0.247 C 
ATOM     52  O   SER A   8       6.104   1.070  17.465  0.00  0.00    -0.299 OA
ENDBRANCH  50  51
BRANCH  50  53
ATOM     53  CB  SER A   8       5.572  -1.692  19.798  0.00  0.00    +0.185 C 
BRANCH  53  54
ATOM     54  OG  SER A   8       5.379  -2.648  18.756  0.00  0.00    -0.393 OA
ATOM     55  H   SER A   8       5.686  -3.505  19.105  0.00  0.00    +0.209 HD
ENDBRANCH  53  54
ENDBRANCH  50  53
ENDBRANCH  47  50
ENDBRANCH  44  46
ENDBRANCH  42  44
ENDBRANCH  39  40
BRANCH  39  56
ATOM     56  CB  ILE A   6       4.146   3.568  24.404  0.00  0.00    +0.015 C 
ATOM     57  CG2 ILE A   6       2.664   3.177  24.505  0.00  0.00    +0.010 C 
BRANCH  56  58
ATOM     58  CG1 ILE A   6       4.604   4.298  25.691  0.00  0.00    +0.002 C 
ATOM     59  CD1 ILE A   6       3.470   4.768  26.594  0.00  0.00    +0.004 C 
ENDBRANCH  56  58
ENDBRANCH  39  56
ENDBRANCH  36  39
ENDBRANCH  33  35
ENDBRANCH  31  33
ENDBRANCH   1  29
BRANCH   1  60
ATOM     60  CB  GLN A   4       8.066  -3.369  24.770  0.00  0.00    +0.041 C 
BRANCH  60  61
ATOM     61  CG  GLN A   4       9.506  -3.010  24.404  0.00  0.00    +0.098 C 
BRANCH  61  62
ATOM     62  CD  GLN A   4       9.632  -2.321  23.062  0.00  0.00    +0.211 C 
ATOM     63  OE1 GLN A   4      10.699  -1.895  22.634  0.00  0.00    -0.276 OA
ATOM     64  NE2 GLN A   4       8.478  -2.114  22.371  0.00  0.00    -0.329 N 
ATOM     65 HE21 GLN A   4       7.574  -2.454  22.660  0.00  0.00    +0.145 HD
ATOM     66 HE22 GLN A   4       8.554  -1.650  21.475  0.00  0.00    +0.145 HD
ENDBRANCH  61  62
ENDBRANCH  60  61
ENDBRANCH   1  60
TORSDOF 27
ENDMDL
MODEL 3
REMARK VINA RESULT:      -6.3      1.762      7.647
REMARK  Name = ATLQAIAS-mmff94.pdb
REMARK  35 active torsions:
REMARK  status: ('A' for Active; 'I' for Inactive)
REMARK    1  A    between atoms: _1  and  _2
REMARK    2  A    between atoms: _2  and  _3
REMARK    3  A    between atoms: _2  and  _5
REMARK    4  A    between atoms: _11  and  _12
REMARK    5  A    between atoms: _12  and  _13
REMARK    6  A    between atoms: _12  and  _15
REMARK    7  A    between atoms: _15  and  _16
REMARK    8  A    between atoms: _15  and  _17
REMARK    9  A    between atoms: _25  and  _26
REMARK   10  A    between atoms: _26  and  _27
REMARK   11  A    between atoms: _26  and  _29
REMARK   12  A    between atoms: _29  and  _30
REMARK   13  A    between atoms: _30  and  _31
REMARK   14  A    between atoms: _30  and  _32
REMARK   15  A    between atoms: _44  and  _45
REMARK   16  A    between atoms: _45  and  _46
REMARK   17  A    between atoms: _45  and  _48
REMARK   18  A    between atoms: _48  and  _49
REMARK   19  A    between atoms: _49  and  _50
REMARK   20  A    between atoms: _61  and  _62
REMARK   21  A    between atoms: _62  and  _63
REMARK   22  A    between atoms: _62  and  _65
REMARK   23  A    between atoms: _71  and  _72
REMARK   24  A    between atoms: _72  and  _73
REMARK   25  A    between atoms: _72  and  _75
REMARK   26  A    between atoms: _75  and  _76
REMARK   27  A    between atoms: _75  and  _77
REMARK   28  A    between atoms: _76  and  _78
REMARK   29  A    between atoms: _90  and  _91
REMARK   30  A    between atoms: _91  and  _92
REMARK   31  A    between atoms: _91  and  _94
REMARK   32  A    between atoms: _100  and  _101
REMARK   33  A    between atoms: _101  and  _102
REMARK   34  A    between atoms: _101  and  _104
REMARK   35  A    between atoms: _104  and  _105
REMARK                            x       y       z     vdW  Elec       q    Type
REMARK                         _______ _______ _______ _____ _____    ______ ____
ROOT
ATOM      1  CA  GLN A   4       5.408   1.035  26.477  0.00  0.00    +0.159 C 
ENDROOT
BRANCH   1   3
ATOM      2  C   LEU A   3       6.723   1.642  24.451  0.00  0.00    +0.234 C 
ATOM      3  N   GLN A   4       5.536   1.286  25.042  0.00  0.00    -0.302 N 
ATOM      4  H   GLN A   4       4.678   1.245  24.496  0.00  0.00    +0.150 HD
ATOM      5  O   LEU A   3       7.772   1.761  25.083  0.00  0.00    -0.274 OA
BRANCH   2   6
ATOM      6  CA  LEU A   3       6.653   1.851  22.923  0.00  0.00    +0.159 C 
BRANCH   6   9
ATOM      7  C   THR A   2       7.082   0.021  21.288  0.00  0.00    +0.236 C 
ATOM      8  O   THR A   2       7.989   0.633  20.725  0.00  0.00    -0.274 OA
ATOM      9  N   LEU A   3       6.359   0.550  22.330  0.00  0.00    -0.302 N 
ATOM     10  H   LEU A   3       5.694  -0.031  22.834  0.00  0.00    +0.150 HD
BRANCH   7  11
ATOM     11  CA  THR A   2       6.697  -1.410  20.888  0.00  0.00    +0.187 C 
BRANCH  11  13
ATOM     12  C   ALA A   1       6.296  -3.382  22.346  0.00  0.00    +0.230 C 
ATOM     13  N   THR A   2       6.158  -2.038  22.095  0.00  0.00    -0.301 N 
ATOM     14  H   THR A   2       5.569  -1.464  22.689  0.00  0.00    +0.150 HD
ATOM     15  O   ALA A   1       6.989  -4.132  21.662  0.00  0.00    -0.274 OA
BRANCH  12  16
ATOM     16  CA  ALA A   1       5.532  -3.875  23.591  0.00  0.00    +0.135 C 
ATOM     17  CB  ALA A   1       4.259  -4.595  23.166  0.00  0.00    +0.033 C 
BRANCH  16  18
ATOM     18  N   ALA A   1       5.202  -2.730  24.462  0.00  0.00    -0.320 NA
ATOM     19  H1  ALA A   1       5.484  -2.990  25.413  0.00  0.00    +0.119 HD
ATOM     20  H2  ALA A   1       4.183  -2.678  24.529  0.00  0.00    +0.119 HD
ENDBRANCH  16  18
ENDBRANCH  12  16
ENDBRANCH  11  13
BRANCH  11  21
ATOM     21  CB  THR A   2       5.641  -1.357  19.757  0.00  0.00    +0.141 C 
ATOM     22  CG2 THR A   2       6.062  -0.454  18.603  0.00  0.00    +0.040 C 
BRANCH  21  23
ATOM     23  OG1 THR A   2       5.414  -2.671  19.230  0.00  0.00    -0.390 OA
ATOM     24  HG1 THR A   2       4.460  -2.854  19.276  0.00  0.00    +0.210 HD
ENDBRANCH  21  23
ENDBRANCH  11  21
ENDBRANCH   7  11
ENDBRANCH   6   9
BRANCH   6  25
ATOM     25  CB  LEU A   3       5.563   2.883  22.594  0.00  0.00    +0.034 C 
BRANCH  25  26
ATOM     26  CG  LEU A   3       6.026   4.353  22.628  0.00  0.00    -0.015 C 
ATOM     27  CD2 LEU A   3       5.702   4.965  23.994  0.00  0.00    +0.007 C 
ATOM     28  CD1 LEU A   3       7.524   4.494  22.349  0.00  0.00    +0.007 C 
ENDBRANCH  25  26
ENDBRANCH   6  25
ENDBRANCH   2   6
ENDBRANCH   1   3
BRANCH   1  29
ATOM     29  C   GLN A   4       4.110   0.224  26.658  0.00  0.00    +0.234 C 
ATOM     30  O   GLN A   4       3.001   0.751  26.574  0.00  0.00    -0.274 OA
ATOM     31  N   ALA A   5       4.286  -1.097  26.978  0.00  0.00    -0.303 N 
ATOM     32  H   ALA A   5       5.212  -1.518  26.981  0.00  0.00    +0.149 HD
BRANCH  31  33
ATOM     33  CA  ALA A   5       3.177  -1.976  27.328  0.00  0.00    +0.156 C 
ATOM     34  CB  ALA A   5       2.518  -2.581  26.097  0.00  0.00    +0.038 C 
BRANCH  33  35
ATOM     35  C   ALA A   5       3.747  -3.087  28.224  0.00  0.00    +0.234 C 
ATOM     36  N   ILE A   6       4.358  -4.115  27.551  0.00  0.00    -0.302 N 
ATOM     37  H   ILE A   6       4.475  -4.072  26.541  0.00  0.00    +0.150 HD
ATOM     38  O   ALA A   5       3.651  -3.046  29.450  0.00  0.00    -0.274 OA
BRANCH  36  39
ATOM     39  CA  ILE A   6       4.943  -5.281  28.218  0.00  0.00    +0.162 C 
BRANCH  39  40
ATOM     40  C   ILE A   6       6.428  -5.254  27.789  0.00  0.00    +0.234 C 
ATOM     41  O   ILE A   6       7.237  -6.092  28.192  0.00  0.00    -0.274 OA
ATOM     42  N   ALA A   7       6.788  -4.220  26.961  0.00  0.00    -0.303 N 
ATOM     43  H   ALA A   7       6.109  -3.513  26.694  0.00  0.00    +0.149 HD
BRANCH  42  44
ATOM     44  CA  ALA A   7       8.173  -3.968  26.582  0.00  0.00    +0.156 C 
ATOM     45  CB  ALA A   7       8.713  -5.088  25.703  0.00  0.00    +0.038 C 
BRANCH  44  46
ATOM     46  C   ALA A   7       8.219  -2.615  25.848  0.00  0.00    +0.234 C 
ATOM     47  N   SER A   8       9.245  -2.468  24.948  0.00  0.00    -0.302 N 
ATOM     48  H   SER A   8       9.794  -3.277  24.665  0.00  0.00    +0.150 HD
ATOM     49  O   ALA A   7       7.397  -1.722  26.061  0.00  0.00    -0.274 OA
BRANCH  47  50
ATOM     50  CA  SER A   8       9.349  -1.291  24.084  0.00  0.00    +0.161 C 
BRANCH  50  51
ATOM     51  C   SER A   8       9.805  -1.757  22.710  0.00  0.00    +0.247 C 
ATOM     52  O   SER A   8      10.526  -1.077  21.978  0.00  0.00    -0.299 OA
ENDBRANCH  50  51
BRANCH  50  53
ATOM     53  CB  SER A   8      10.326  -0.243  24.624  0.00  0.00    +0.185 C 
BRANCH  53  54
ATOM     54  OG  SER A   8      10.224   0.978  23.894  0.00  0.00    -0.393 OA
ATOM     55  H   SER A   8      10.950   1.550  24.205  0.00  0.00    +0.209 HD
ENDBRANCH  53  54
ENDBRANCH  50  53
ENDBRANCH  47  50
ENDBRANCH  44  46
ENDBRANCH  42  44
ENDBRANCH  39  40
BRANCH  39  56
ATOM     56  CB  ILE A   6       4.250  -6.611  27.795  0.00  0.00    +0.015 C 
ATOM     57  CG2 ILE A   6       2.800  -6.670  28.297  0.00  0.00    +0.010 C 
BRANCH  56  58
ATOM     58  CG1 ILE A   6       4.304  -6.821  26.261  0.00  0.00    +0.002 C 
ATOM     59  CD1 ILE A   6       2.965  -7.164  25.620  0.00  0.00    +0.004 C 
ENDBRANCH  56  58
ENDBRANCH  39  56
ENDBRANCH  36  39
ENDBRANCH  33  35
ENDBRANCH  31  33
ENDBRANCH   1  29
BRANCH   1  60
ATOM     60  CB  GLN A   4       5.343   2.361  27.251  0.00  0.00    +0.041 C 
BRANCH  60  61
ATOM     61  CG  GLN A   4       6.549   2.607  28.158  0.00  0.00    +0.098 C 
BRANCH  61  62
ATOM     62  CD  GLN A   4       7.078   1.348  28.810  0.00  0.00    +0.211 C 
ATOM     63  OE1 GLN A   4       6.804   1.034  29.963  0.00  0.00    -0.276 OA
ATOM     64  NE2 GLN A   4       7.952   0.603  28.081  0.00  0.00    -0.329 N 
ATOM     65 HE21 GLN A   4       8.203   0.797  27.123  0.00  0.00    +0.145 HD
ATOM     66 HE22 GLN A   4       8.314  -0.239  28.512  0.00  0.00    +0.145 HD
ENDBRANCH  61  62
ENDBRANCH  60  61
ENDBRANCH   1  60
TORSDOF 27
ENDMDL
MODEL 4
REMARK VINA RESULT:      -6.3      2.073      7.476
REMARK  Name = ATLQAIAS-mmff94.pdb
REMARK  35 active torsions:
REMARK  status: ('A' for Active; 'I' for Inactive)
REMARK    1  A    between atoms: _1  and  _2
REMARK    2  A    between atoms: _2  and  _3
REMARK    3  A    between atoms: _2  and  _5
REMARK    4  A    between atoms: _11  and  _12
REMARK    5  A    between atoms: _12  and  _13
REMARK    6  A    between atoms: _12  and  _15
REMARK    7  A    between atoms: _15  and  _16
REMARK    8  A    between atoms: _15  and  _17
REMARK    9  A    between atoms: _25  and  _26
REMARK   10  A    between atoms: _26  and  _27
REMARK   11  A    between atoms: _26  and  _29
REMARK   12  A    between atoms: _29  and  _30
REMARK   13  A    between atoms: _30  and  _31
REMARK   14  A    between atoms: _30  and  _32
REMARK   15  A    between atoms: _44  and  _45
REMARK   16  A    between atoms: _45  and  _46
REMARK   17  A    between atoms: _45  and  _48
REMARK   18  A    between atoms: _48  and  _49
REMARK   19  A    between atoms: _49  and  _50
REMARK   20  A    between atoms: _61  and  _62
REMARK   21  A    between atoms: _62  and  _63
REMARK   22  A    between atoms: _62  and  _65
REMARK   23  A    between atoms: _71  and  _72
REMARK   24  A    between atoms: _72  and  _73
REMARK   25  A    between atoms: _72  and  _75
REMARK   26  A    between atoms: _75  and  _76
REMARK   27  A    between atoms: _75  and  _77
REMARK   28  A    between atoms: _76  and  _78
REMARK   29  A    between atoms: _90  and  _91
REMARK   30  A    between atoms: _91  and  _92
REMARK   31  A    between atoms: _91  and  _94
REMARK   32  A    between atoms: _100  and  _101
REMARK   33  A    between atoms: _101  and  _102
REMARK   34  A    between atoms: _101  and  _104
REMARK   35  A    between atoms: _104  and  _105
REMARK                            x       y       z     vdW  Elec       q    Type
REMARK                         _______ _______ _______ _____ _____    ______ ____
ROOT
ATOM      1  CA  GLN A   4       4.392  -2.998  27.854  0.00  0.00    +0.159 C 
ENDROOT
BRANCH   1   3
ATOM      2  C   LEU A   3       3.257  -3.328  25.661  0.00  0.00    +0.234 C 
ATOM      3  N   GLN A   4       4.219  -3.684  26.574  0.00  0.00    -0.302 N 
ATOM      4  H   GLN A   4       4.814  -4.493  26.409  0.00  0.00    +0.150 HD
ATOM      5  O   LEU A   3       2.477  -2.394  25.847  0.00  0.00    -0.274 OA
BRANCH   2   6
ATOM      6  CA  LEU A   3       3.245  -4.167  24.366  0.00  0.00    +0.159 C 
BRANCH   6   9
ATOM      7  C   THR A   2       5.255  -3.916  22.916  0.00  0.00    +0.236 C 
ATOM      8  O   THR A   2       4.663  -3.230  22.083  0.00  0.00    -0.274 OA
ATOM      9  N   LEU A   3       4.637  -4.441  24.026  0.00  0.00    -0.302 N 
ATOM     10  H   LEU A   3       5.188  -4.909  24.740  0.00  0.00    +0.150 HD
BRANCH   7  11
ATOM     11  CA  THR A   2       6.754  -4.221  22.799  0.00  0.00    +0.187 C 
BRANCH  11  13
ATOM     12  C   ALA A   1       8.465  -4.740  24.525  0.00  0.00    +0.230 C 
ATOM     13  N   THR A   2       7.160  -4.767  24.096  0.00  0.00    -0.301 N 
ATOM     14  H   THR A   2       6.458  -5.277  24.620  0.00  0.00    +0.150 HD
ATOM     15  O   ALA A   1       9.363  -4.145  23.933  0.00  0.00    -0.274 OA
BRANCH  12  16
ATOM     16  CA  ALA A   1       8.711  -5.495  25.847  0.00  0.00    +0.135 C 
ATOM     17  CB  ALA A   1       7.423  -5.550  26.658  0.00  0.00    +0.033 C 
BRANCH  16  18
ATOM     18  N   ALA A   1       9.771  -4.820  26.620  0.00  0.00    -0.320 NA
ATOM     19  H1  ALA A   1      10.179  -4.107  26.006  0.00  0.00    +0.119 HD
ATOM     20  H2  ALA A   1      10.536  -5.487  26.742  0.00  0.00    +0.119 HD
ENDBRANCH  16  18
ENDBRANCH  12  16
ENDBRANCH  11  13
BRANCH  11  21
ATOM     21  CB  THR A   2       6.979  -5.244  21.659  0.00  0.00    +0.141 C 
ATOM     22  CG2 THR A   2       6.630  -6.670  22.074  0.00  0.00    +0.040 C 
BRANCH  21  23
ATOM     23  OG1 THR A   2       6.173  -4.905  20.523  0.00  0.00    -0.390 OA
ATOM     24  HG1 THR A   2       5.484  -5.584  20.428  0.00  0.00    +0.210 HD
ENDBRANCH  21  23
ENDBRANCH  11  21
ENDBRANCH   7  11
ENDBRANCH   6   9
BRANCH   6  25
ATOM     25  CB  LEU A   3       2.452  -5.463  24.600  0.00  0.00    +0.034 C 
BRANCH  25  26
ATOM     26  CG  LEU A   3       3.221  -6.763  24.288  0.00  0.00    -0.015 C 
ATOM     27  CD2 LEU A   3       3.972  -7.231  25.538  0.00  0.00    +0.007 C 
ATOM     28  CD1 LEU A   3       2.295  -7.880  23.802  0.00  0.00    +0.007 C 
ENDBRANCH  25  26
ENDBRANCH   6  25
ENDBRANCH   2   6
ENDBRANCH   1   3
BRANCH   1  29
ATOM     29  C   GLN A   4       5.238  -1.744  27.559  0.00  0.00    +0.234 C 
ATOM     30  O   GLN A   4       4.994  -0.659  28.085  0.00  0.00    -0.274 OA
ATOM     31  N   ALA A   5       6.230  -1.915  26.628  0.00  0.00    -0.303 N 
ATOM     32  H   ALA A   5       6.448  -2.836  26.255  0.00  0.00    +0.149 HD
BRANCH  31  33
ATOM     33  CA  ALA A   5       7.030  -0.808  26.119  0.00  0.00    +0.156 C 
ATOM     34  CB  ALA A   5       8.368  -1.278  25.567  0.00  0.00    +0.038 C 
BRANCH  33  35
ATOM     35  C   ALA A   5       6.210  -0.129  25.011  0.00  0.00    +0.234 C 
ATOM     36  N   ILE A   6       6.289   1.240  24.990  0.00  0.00    -0.302 N 
ATOM     37  H   ILE A   6       6.914   1.730  25.626  0.00  0.00    +0.150 HD
ATOM     38  O   ALA A   5       5.534  -0.778  24.213  0.00  0.00    -0.274 OA
BRANCH  36  39
ATOM     39  CA  ILE A   6       5.564   2.076  24.030  0.00  0.00    +0.162 C 
BRANCH  39  40
ATOM     40  C   ILE A   6       6.572   2.284  22.876  0.00  0.00    +0.234 C 
ATOM     41  O   ILE A   6       6.391   3.131  21.999  0.00  0.00    -0.274 OA
ATOM     42  N   ALA A   7       7.656   1.444  22.876  0.00  0.00    -0.303 N 
ATOM     43  H   ALA A   7       7.746   0.717  23.582  0.00  0.00    +0.149 HD
BRANCH  42  44
ATOM     44  CA  ALA A   7       8.621   1.411  21.784  0.00  0.00    +0.156 C 
ATOM     45  CB  ALA A   7      10.026   1.135  22.302  0.00  0.00    +0.038 C 
BRANCH  44  46
ATOM     46  C   ALA A   7       8.171   0.322  20.793  0.00  0.00    +0.234 C 
ATOM     47  N   SER A   8       7.051   0.622  20.058  0.00  0.00    -0.302 N 
ATOM     48  H   SER A   8       6.689   1.574  20.047  0.00  0.00    +0.150 HD
ATOM     49  O   ALA A   7       8.767  -0.749  20.675  0.00  0.00    -0.274 OA
BRANCH  47  50
ATOM     50  CA  SER A   8       6.572  -0.256  18.989  0.00  0.00    +0.161 C 
BRANCH  50  51
ATOM     51  C   SER A   8       5.835   0.603  17.972  0.00  0.00    +0.247 C 
ATOM     52  O   SER A   8       6.415   1.294  17.134  0.00  0.00    -0.299 OA
ENDBRANCH  50  51
BRANCH  50  53
ATOM     53  CB  SER A   8       5.645  -1.362  19.501  0.00  0.00    +0.185 C 
BRANCH  53  54
ATOM     54  OG  SER A   8       5.496  -2.395  18.528  0.00  0.00    -0.393 OA
ATOM     55  H   SER A   8       6.358  -2.849  18.471  0.00  0.00    +0.209 HD
ENDBRANCH  53  54
ENDBRANCH  50  53
ENDBRANCH  47  50
ENDBRANCH  44  46
ENDBRANCH  42  44
ENDBRANCH  39  40
BRANCH  39  56
ATOM     56  CB  ILE A   6       5.118   3.435  24.650  0.00  0.00    +0.015 C 
ATOM     57  CG2 ILE A   6       3.822   3.280  25.461  0.00  0.00    +0.010 C 
BRANCH  56  58
ATOM     58  CG1 ILE A   6       6.235   4.059  25.524  0.00  0.00    +0.002 C 
ATOM     59  CD1 ILE A   6       6.678   5.450  25.090  0.00  0.00    +0.004 C 
ENDBRANCH  56  58
ENDBRANCH  39  56
ENDBRANCH  36  39
ENDBRANCH  33  35
ENDBRANCH  31  33
ENDBRANCH   1  29
BRANCH   1  60
ATOM     60  CB  GLN A   4       5.098  -3.915  28.865  0.00  0.00    +0.041 C 
BRANCH  60  61
ATOM     61  CG  GLN A   4       4.460  -5.297  28.995  0.00  0.00    +0.098 C 
BRANCH  61  62
ATOM     62  CD  GLN A   4       5.433  -6.371  29.434  0.00  0.00    +0.211 C 
ATOM     63  OE1 GLN A   4       6.300  -6.173  30.278  0.00  0.00    -0.276 OA
ATOM     64  NE2 GLN A   4       5.359  -7.564  28.785  0.00  0.00    -0.329 N 
ATOM     65 HE21 GLN A   4       4.659  -7.794  28.097  0.00  0.00    +0.145 HD
ATOM     66 HE22 GLN A   4       6.009  -8.286  29.071  0.00  0.00    +0.145 HD
ENDBRANCH  61  62
ENDBRANCH  60  61
ENDBRANCH   1  60
TORSDOF 27
ENDMDL
MODEL 5
REMARK VINA RESULT:      -6.3      2.143      7.216
REMARK  Name = ATLQAIAS-mmff94.pdb
REMARK  35 active torsions:
REMARK  status: ('A' for Active; 'I' for Inactive)
REMARK    1  A    between atoms: _1  and  _2
REMARK    2  A    between atoms: _2  and  _3
REMARK    3  A    between atoms: _2  and  _5
REMARK    4  A    between atoms: _11  and  _12
REMARK    5  A    between atoms: _12  and  _13
REMARK    6  A    between atoms: _12  and  _15
REMARK    7  A    between atoms: _15  and  _16
REMARK    8  A    between atoms: _15  and  _17
REMARK    9  A    between atoms: _25  and  _26
REMARK   10  A    between atoms: _26  and  _27
REMARK   11  A    between atoms: _26  and  _29
REMARK   12  A    between atoms: _29  and  _30
REMARK   13  A    between atoms: _30  and  _31
REMARK   14  A    between atoms: _30  and  _32
REMARK   15  A    between atoms: _44  and  _45
REMARK   16  A    between atoms: _45  and  _46
REMARK   17  A    between atoms: _45  and  _48
REMARK   18  A    between atoms: _48  and  _49
REMARK   19  A    between atoms: _49  and  _50
REMARK   20  A    between atoms: _61  and  _62
REMARK   21  A    between atoms: _62  and  _63
REMARK   22  A    between atoms: _62  and  _65
REMARK   23  A    between atoms: _71  and  _72
REMARK   24  A    between atoms: _72  and  _73
REMARK   25  A    between atoms: _72  and  _75
REMARK   26  A    between atoms: _75  and  _76
REMARK   27  A    between atoms: _75  and  _77
REMARK   28  A    between atoms: _76  and  _78
REMARK   29  A    between atoms: _90  and  _91
REMARK   30  A    between atoms: _91  and  _92
REMARK   31  A    between atoms: _91  and  _94
REMARK   32  A    between atoms: _100  and  _101
REMARK   33  A    between atoms: _101  and  _102
REMARK   34  A    between atoms: _101  and  _104
REMARK   35  A    between atoms: _104  and  _105
REMARK                            x       y       z     vdW  Elec       q    Type
REMARK                         _______ _______ _______ _____ _____    ______ ____
ROOT
ATOM      1  CA  GLN A   4       7.863  -2.698  26.335  0.00  0.00    +0.159 C 
ENDROOT
BRANCH   1   3
ATOM      2  C   LEU A   3       6.708  -4.688  27.290  0.00  0.00    +0.234 C 
ATOM      3  N   GLN A   4       6.662  -3.433  26.735  0.00  0.00    -0.302 N 
ATOM      4  H   GLN A   4       5.769  -2.993  26.524  0.00  0.00    +0.150 HD
ATOM      5  O   LEU A   3       7.764  -5.281  27.507  0.00  0.00    -0.274 OA
BRANCH   2   6
ATOM      6  CA  LEU A   3       5.334  -5.288  27.654  0.00  0.00    +0.159 C 
BRANCH   6   9
ATOM      7  C   THR A   2       3.449  -5.576  26.051  0.00  0.00    +0.236 C 
ATOM      8  O   THR A   2       2.646  -4.982  26.770  0.00  0.00    -0.274 OA
ATOM      9  N   LEU A   3       4.754  -5.802  26.418  0.00  0.00    -0.302 N 
ATOM     10  H   LEU A   3       5.408  -6.200  25.749  0.00  0.00    +0.150 HD
BRANCH   7  11
ATOM     11  CA  THR A   2       3.064  -6.093  24.658  0.00  0.00    +0.187 C 
BRANCH  11  13
ATOM     12  C   ALA A   1       4.709  -5.341  22.954  0.00  0.00    +0.230 C 
ATOM     13  N   THR A   2       4.320  -6.239  23.918  0.00  0.00    -0.301 N 
ATOM     14  H   THR A   2       4.840  -7.098  24.059  0.00  0.00    +0.150 HD
ATOM     15  O   ALA A   1       4.120  -4.286  22.730  0.00  0.00    -0.274 OA
BRANCH  12  16
ATOM     16  CA  ALA A   1       5.984  -5.749  22.188  0.00  0.00    +0.135 C 
ATOM     17  CB  ALA A   1       6.850  -4.522  21.935  0.00  0.00    +0.033 C 
BRANCH  16  18
ATOM     18  N   ALA A   1       5.618  -6.387  20.909  0.00  0.00    -0.320 NA
ATOM     19  H1  ALA A   1       6.320  -7.112  20.727  0.00  0.00    +0.119 HD
ATOM     20  H2  ALA A   1       5.790  -5.707  20.165  0.00  0.00    +0.119 HD
ENDBRANCH  16  18
ENDBRANCH  12  16
ENDBRANCH  11  13
BRANCH  11  21
ATOM     21  CB  THR A   2       2.332  -7.449  24.802  0.00  0.00    +0.141 C 
ATOM     22  CG2 THR A   2       1.814  -7.980  23.469  0.00  0.00    +0.040 C 
BRANCH  21  23
ATOM     23  OG1 THR A   2       3.216  -8.434  25.355  0.00  0.00    -0.390 OA
ATOM     24  HG1 THR A   2       3.815  -8.731  24.651  0.00  0.00    +0.210 HD
ENDBRANCH  21  23
ENDBRANCH  11  21
ENDBRANCH   7  11
ENDBRANCH   6   9
BRANCH   6  25
ATOM     25  CB  LEU A   3       5.519  -6.401  28.699  0.00  0.00    +0.034 C 
BRANCH  25  26
ATOM     26  CG  LEU A   3       4.508  -6.376  29.863  0.00  0.00    -0.015 C 
ATOM     27  CD2 LEU A   3       4.107  -4.929  30.168  0.00  0.00    +0.007 C 
ATOM     28  CD1 LEU A   3       3.255  -7.198  29.559  0.00  0.00    +0.007 C 
ENDBRANCH  25  26
ENDBRANCH   6  25
ENDBRANCH   2   6
ENDBRANCH   1   3
BRANCH   1  29
ATOM     29  C   GLN A   4       7.574  -1.212  26.627  0.00  0.00    +0.234 C 
ATOM     30  O   GLN A   4       8.479  -0.384  26.723  0.00  0.00    -0.274 OA
ATOM     31  N   ALA A   5       6.255  -0.903  26.833  0.00  0.00    -0.303 N 
ATOM     32  H   ALA A   5       5.523  -1.596  26.689  0.00  0.00    +0.149 HD
BRANCH  31  33
ATOM     33  CA  ALA A   5       5.814   0.418  27.265  0.00  0.00    +0.156 C 
ATOM     34  CB  ALA A   5       6.813   1.072  28.208  0.00  0.00    +0.038 C 
BRANCH  33  35
ATOM     35  C   ALA A   5       5.642   1.273  26.000  0.00  0.00    +0.234 C 
ATOM     36  N   ILE A   6       6.738   2.022  25.656  0.00  0.00    -0.302 N 
ATOM     37  H   ILE A   6       7.607   1.933  26.177  0.00  0.00    +0.150 HD
ATOM     38  O   ALA A   5       4.592   1.278  25.358  0.00  0.00    -0.274 OA
BRANCH  36  39
ATOM     39  CA  ILE A   6       6.770   2.922  24.500  0.00  0.00    +0.162 C 
BRANCH  39  40
ATOM     40  C   ILE A   6       8.089   2.561  23.778  0.00  0.00    +0.234 C 
ATOM     41  O   ILE A   6       8.600   3.310  22.944  0.00  0.00    -0.274 OA
ATOM     42  N   ALA A   7       8.629   1.342  24.103  0.00  0.00    -0.303 N 
ATOM     43  H   ALA A   7       8.152   0.722  24.752  0.00  0.00    +0.149 HD
BRANCH  42  44
ATOM     44  CA  ALA A   7       9.787   0.789  23.410  0.00  0.00    +0.156 C 
ATOM     45  CB  ALA A   7      10.712   0.068  24.381  0.00  0.00    +0.038 C 
BRANCH  44  46
ATOM     46  C   ALA A   7       9.269  -0.168  22.322  0.00  0.00    +0.234 C 
ATOM     47  N   SER A   8       8.135   0.245  21.666  0.00  0.00    -0.302 N 
ATOM     48  H   SER A   8       7.804   1.202  21.775  0.00  0.00    +0.150 HD
ATOM     49  O   ALA A   7       9.826  -1.236  22.062  0.00  0.00    -0.274 OA
BRANCH  47  50
ATOM     50  CA  SER A   8       7.593  -0.493  20.524  0.00  0.00    +0.161 C 
BRANCH  50  51
ATOM     51  C   SER A   8       7.366   0.497  19.392  0.00  0.00    +0.247 C 
ATOM     52  O   SER A   8       7.573   0.220  18.210  0.00  0.00    -0.299 OA
ENDBRANCH  50  51
BRANCH  50  53
ATOM     53  CB  SER A   8       6.281  -1.213  20.851  0.00  0.00    +0.185 C 
BRANCH  53  54
ATOM     54  OG  SER A   8       5.516  -1.445  19.670  0.00  0.00    -0.393 OA
ATOM     55  H   SER A   8       4.823  -2.089  19.910  0.00  0.00    +0.209 HD
ENDBRANCH  53  54
ENDBRANCH  50  53
ENDBRANCH  47  50
ENDBRANCH  44  46
ENDBRANCH  42  44
ENDBRANCH  39  40
BRANCH  39  56
ATOM     56  CB  ILE A   6       6.741   4.422  24.920  0.00  0.00    +0.015 C 
ATOM     57  CG2 ILE A   6       5.313   4.884  25.247  0.00  0.00    +0.010 C 
BRANCH  56  58
ATOM     58  CG1 ILE A   6       7.689   4.701  26.112  0.00  0.00    +0.002 C 
ATOM     59  CD1 ILE A   6       6.993   5.179  27.380  0.00  0.00    +0.004 C 
ENDBRANCH  56  58
ENDBRANCH  39  56
ENDBRANCH  36  39
ENDBRANCH  33  35
ENDBRANCH  31  33
ENDBRANCH   1  29
BRANCH   1  60
ATOM     60  CB  GLN A   4       8.157  -2.919  24.843  0.00  0.00    +0.041 C 
BRANCH  60  61
ATOM     61  CG  GLN A   4       9.537  -3.516  24.568  0.00  0.00    +0.098 C 
BRANCH  61  62
ATOM     62  CD  GLN A   4       9.611  -5.006  24.826  0.00  0.00    +0.211 C 
ATOM     63  OE1 GLN A   4       9.017  -5.828  24.136  0.00  0.00    -0.276 OA
ATOM     64  NE2 GLN A   4      10.310  -5.402  25.924  0.00  0.00    -0.329 N 
ATOM     65 HE21 GLN A   4      10.834  -4.778  26.519  0.00  0.00    +0.145 HD
ATOM     66 HE22 GLN A   4      10.361  -6.396  26.105  0.00  0.00    +0.145 HD
ENDBRANCH  61  62
ENDBRANCH  60  61
ENDBRANCH   1  60
TORSDOF 27
ENDMDL
MODEL 6
REMARK VINA RESULT:      -6.2      2.574      7.373
REMARK  Name = ATLQAIAS-mmff94.pdb
REMARK  35 active torsions:
REMARK  status: ('A' for Active; 'I' for Inactive)
REMARK    1  A    between atoms: _1  and  _2
REMARK    2  A    between atoms: _2  and  _3
REMARK    3  A    between atoms: _2  and  _5
REMARK    4  A    between atoms: _11  and  _12
REMARK    5  A    between atoms: _12  and  _13
REMARK    6  A    between atoms: _12  and  _15
REMARK    7  A    between atoms: _15  and  _16
REMARK    8  A    between atoms: _15  and  _17
REMARK    9  A    between atoms: _25  and  _26
REMARK   10  A    between atoms: _26  and  _27
REMARK   11  A    between atoms: _26  and  _29
REMARK   12  A    between atoms: _29  and  _30
REMARK   13  A    between atoms: _30  and  _31
REMARK   14  A    between atoms: _30  and  _32
REMARK   15  A    between atoms: _44  and  _45
REMARK   16  A    between atoms: _45  and  _46
REMARK   17  A    between atoms: _45  and  _48
REMARK   18  A    between atoms: _48  and  _49
REMARK   19  A    between atoms: _49  and  _50
REMARK   20  A    between atoms: _61  and  _62
REMARK   21  A    between atoms: _62  and  _63
REMARK   22  A    between atoms: _62  and  _65
REMARK   23  A    between atoms: _71  and  _72
REMARK   24  A    between atoms: _72  and  _73
REMARK   25  A    between atoms: _72  and  _75
REMARK   26  A    between atoms: _75  and  _76
REMARK   27  A    between atoms: _75  and  _77
REMARK   28  A    between atoms: _76  and  _78
REMARK   29  A    between atoms: _90  and  _91
REMARK   30  A    between atoms: _91  and  _92
REMARK   31  A    between atoms: _91  and  _94
REMARK   32  A    between atoms: _100  and  _101
REMARK   33  A    between atoms: _101  and  _102
REMARK   34  A    between atoms: _101  and  _104
REMARK   35  A    between atoms: _104  and  _105
REMARK                            x       y       z     vdW  Elec       q    Type
REMARK                         _______ _______ _______ _____ _____    ______ ____
ROOT
ATOM      1  CA  GLN A   4       4.018  -4.241  23.364  0.00  0.00    +0.159 C 
ENDROOT
BRANCH   1   3
ATOM      2  C   LEU A   3       6.149  -3.278  22.507  0.00  0.00    +0.234 C 
ATOM      3  N   GLN A   4       5.427  -3.877  23.510  0.00  0.00    -0.302 N 
ATOM      4  H   GLN A   4       5.878  -4.146  24.382  0.00  0.00    +0.150 HD
ATOM      5  O   LEU A   3       5.659  -2.989  21.416  0.00  0.00    -0.274 OA
BRANCH   2   6
ATOM      6  CA  LEU A   3       7.618  -2.962  22.862  0.00  0.00    +0.159 C 
BRANCH   6   9
ATOM      7  C   THR A   2       9.195  -1.245  21.984  0.00  0.00    +0.236 C 
ATOM      8  O   THR A   2      10.192  -1.925  22.230  0.00  0.00    -0.274 OA
ATOM      9  N   LEU A   3       7.920  -1.653  22.292  0.00  0.00    -0.302 N 
ATOM     10  H   LEU A   3       7.122  -1.109  21.973  0.00  0.00    +0.150 HD
BRANCH   7  11
ATOM     11  CA  THR A   2       9.294   0.114  21.279  0.00  0.00    +0.187 C 
BRANCH  11  13
ATOM     12  C   ALA A   1       7.191   0.190  19.956  0.00  0.00    +0.230 C 
ATOM     13  N   THR A   2       8.547  -0.023  20.027  0.00  0.00    -0.301 N 
ATOM     14  H   THR A   2       9.048  -0.401  19.231  0.00  0.00    +0.150 HD
ATOM     15  O   ALA A   1       6.525   0.641  20.886  0.00  0.00    -0.274 OA
BRANCH  12  16
ATOM     16  CA  ALA A   1       6.568  -0.149  18.587  0.00  0.00    +0.135 C 
ATOM     17  CB  ALA A   1       5.786   1.049  18.064  0.00  0.00    +0.033 C 
BRANCH  16  18
ATOM     18  N   ALA A   1       5.680  -1.319  18.716  0.00  0.00    -0.320 NA
ATOM     19  H1  ALA A   1       4.840  -1.117  18.165  0.00  0.00    +0.119 HD
ATOM     20  H2  ALA A   1       5.329  -1.336  19.677  0.00  0.00    +0.119 HD
ENDBRANCH  16  18
ENDBRANCH  12  16
ENDBRANCH  11  13
BRANCH  11  21
ATOM     21  CB  THR A   2       8.679   1.206  22.188  0.00  0.00    +0.141 C 
ATOM     22  CG2 THR A   2       9.281   1.209  23.589  0.00  0.00    +0.040 C 
BRANCH  21  23
ATOM     23  OG1 THR A   2       8.888   2.504  21.614  0.00  0.00    -0.390 OA
ATOM     24  HG1 THR A   2       8.750   3.167  22.311  0.00  0.00    +0.210 HD
ENDBRANCH  21  23
ENDBRANCH  11  21
ENDBRANCH   7  11
ENDBRANCH   6   9
BRANCH   6  25
ATOM     25  CB  LEU A   3       7.791  -2.970  24.389  0.00  0.00    +0.034 C 
BRANCH  25  26
ATOM     26  CG  LEU A   3       8.816  -3.990  24.923  0.00  0.00    -0.015 C 
ATOM     27  CD2 LEU A   3       8.699  -4.090  26.447  0.00  0.00    +0.007 C 
ATOM     28  CD1 LEU A   3       8.627  -5.377  24.306  0.00  0.00    +0.007 C 
ENDBRANCH  25  26
ENDBRANCH   6  25
ENDBRANCH   2   6
ENDBRANCH   1   3
BRANCH   1  29
ATOM     29  C   GLN A   4       3.338  -3.869  24.696  0.00  0.00    +0.234 C 
ATOM     30  O   GLN A   4       2.172  -4.181  24.938  0.00  0.00    -0.274 OA
ATOM     31  N   ALA A   5       4.101  -3.117  25.551  0.00  0.00    -0.303 N 
ATOM     32  H   ALA A   5       5.080  -2.925  25.352  0.00  0.00    +0.149 HD
BRANCH  31  33
ATOM     33  CA  ALA A   5       3.573  -2.551  26.787  0.00  0.00    +0.156 C 
ATOM     34  CB  ALA A   5       4.203  -3.184  28.018  0.00  0.00    +0.038 C 
BRANCH  33  35
ATOM     35  C   ALA A   5       3.868  -1.044  26.756  0.00  0.00    +0.234 C 
ATOM     36  N   ILE A   6       5.195  -0.717  26.634  0.00  0.00    -0.302 N 
ATOM     37  H   ILE A   6       5.894  -1.444  26.498  0.00  0.00    +0.150 HD
ATOM     38  O   ALA A   5       2.971  -0.205  26.840  0.00  0.00    -0.274 OA
BRANCH  36  39
ATOM     39  CA  ILE A   6       5.687   0.663  26.610  0.00  0.00    +0.162 C 
BRANCH  39  40
ATOM     40  C   ILE A   6       5.737   1.019  25.106  0.00  0.00    +0.234 C 
ATOM     41  O   ILE A   6       5.987   0.174  24.245  0.00  0.00    -0.274 OA
ATOM     42  N   ALA A   7       5.518   2.339  24.801  0.00  0.00    -0.303 N 
ATOM     43  H   ALA A   7       5.371   3.022  25.540  0.00  0.00    +0.149 HD
BRANCH  42  44
ATOM     44  CA  ALA A   7       5.671   2.866  23.450  0.00  0.00    +0.156 C 
ATOM     45  CB  ALA A   7       4.322   2.996  22.757  0.00  0.00    +0.038 C 
BRANCH  44  46
ATOM     46  C   ALA A   7       6.375   4.231  23.558  0.00  0.00    +0.234 C 
ATOM     47  N   SER A   8       7.522   4.244  24.312  0.00  0.00    -0.302 N 
ATOM     48  H   SER A   8       7.954   3.367  24.598  0.00  0.00    +0.150 HD
ATOM     49  O   ALA A   7       5.935   5.244  23.013  0.00  0.00    -0.274 OA
BRANCH  47  50
ATOM     50  CA  SER A   8       8.369   5.434  24.406  0.00  0.00    +0.161 C 
BRANCH  50  51
ATOM     51  C   SER A   8       9.520   5.269  23.425  0.00  0.00    +0.247 C 
ATOM     52  O   SER A   8      10.446   4.478  23.607  0.00  0.00    -0.299 OA
ENDBRANCH  50  51
BRANCH  50  53
ATOM     53  CB  SER A   8       8.922   5.658  25.817  0.00  0.00    +0.185 C 
BRANCH  53  54
ATOM     54  OG  SER A   8       7.934   5.375  26.806  0.00  0.00    -0.393 OA
ATOM     55  H   SER A   8       7.608   4.474  26.622  0.00  0.00    +0.209 HD
ENDBRANCH  53  54
ENDBRANCH  50  53
ENDBRANCH  47  50
ENDBRANCH  44  46
ENDBRANCH  42  44
ENDBRANCH  39  40
BRANCH  39  56
ATOM     56  CB  ILE A   6       7.090   0.799  27.275  0.00  0.00    +0.015 C 
ATOM     57  CG2 ILE A   6       6.979   1.340  28.708  0.00  0.00    +0.010 C 
BRANCH  56  58
ATOM     58  CG1 ILE A   6       7.864  -0.543  27.258  0.00  0.00    +0.002 C 
ATOM     59  CD1 ILE A   6       9.244  -0.474  26.617  0.00  0.00    +0.004 C 
ENDBRANCH  56  58
ENDBRANCH  39  56
ENDBRANCH  36  39
ENDBRANCH  33  35
ENDBRANCH  31  33
ENDBRANCH   1  29
BRANCH   1  60
ATOM     60  CB  GLN A   4       3.878  -5.744  23.075  0.00  0.00    +0.041 C 
BRANCH  60  61
ATOM     61  CG  GLN A   4       4.656  -6.634  24.044  0.00  0.00    +0.098 C 
BRANCH  61  62
ATOM     62  CD  GLN A   4       3.768  -7.475  24.935  0.00  0.00    +0.211 C 
ATOM     63  OE1 GLN A   4       2.958  -8.282  24.491  0.00  0.00    -0.276 OA
ATOM     64  NE2 GLN A   4       3.845  -7.239  26.273  0.00  0.00    -0.329 N 
ATOM     65 HE21 GLN A   4       4.500  -6.603  26.700  0.00  0.00    +0.145 HD
ATOM     66 HE22 GLN A   4       3.250  -7.794  26.875  0.00  0.00    +0.145 HD
ENDBRANCH  61  62
ENDBRANCH  60  61
ENDBRANCH   1  60
TORSDOF 27
ENDMDL
MODEL 7
REMARK VINA RESULT:      -6.2      2.469      5.552
REMARK  Name = ATLQAIAS-mmff94.pdb
REMARK  35 active torsions:
REMARK  status: ('A' for Active; 'I' for Inactive)
REMARK    1  A    between atoms: _1  and  _2
REMARK    2  A    between atoms: _2  and  _3
REMARK    3  A    between atoms: _2  and  _5
REMARK    4  A    between atoms: _11  and  _12
REMARK    5  A    between atoms: _12  and  _13
REMARK    6  A    between atoms: _12  and  _15
REMARK    7  A    between atoms: _15  and  _16
REMARK    8  A    between atoms: _15  and  _17
REMARK    9  A    between atoms: _25  and  _26
REMARK   10  A    between atoms: _26  and  _27
REMARK   11  A    between atoms: _26  and  _29
REMARK   12  A    between atoms: _29  and  _30
REMARK   13  A    between atoms: _30  and  _31
REMARK   14  A    between atoms: _30  and  _32
REMARK   15  A    between atoms: _44  and  _45
REMARK   16  A    between atoms: _45  and  _46
REMARK   17  A    between atoms: _45  and  _48
REMARK   18  A    between atoms: _48  and  _49
REMARK   19  A    between atoms: _49  and  _50
REMARK   20  A    between atoms: _61  and  _62
REMARK   21  A    between atoms: _62  and  _63
REMARK   22  A    between atoms: _62  and  _65
REMARK   23  A    between atoms: _71  and  _72
REMARK   24  A    between atoms: _72  and  _73
REMARK   25  A    between atoms: _72  and  _75
REMARK   26  A    between atoms: _75  and  _76
REMARK   27  A    between atoms: _75  and  _77
REMARK   28  A    between atoms: _76  and  _78
REMARK   29  A    between atoms: _90  and  _91
REMARK   30  A    between atoms: _91  and  _92
REMARK   31  A    between atoms: _91  and  _94
REMARK   32  A    between atoms: _100  and  _101
REMARK   33  A    between atoms: _101  and  _102
REMARK   34  A    between atoms: _101  and  _104
REMARK   35  A    between atoms: _104  and  _105
REMARK                            x       y       z     vdW  Elec       q    Type
REMARK                         _______ _______ _______ _____ _____    ______ ____
ROOT
ATOM      1  CA  GLN A   4       7.216   0.164  21.874  0.00  0.00    +0.159 C 
ENDROOT
BRANCH   1   3
ATOM      2  C   LEU A   3       6.464  -1.742  23.291  0.00  0.00    +0.234 C 
ATOM      3  N   GLN A   4       6.196  -0.576  22.618  0.00  0.00    -0.302 N 
ATOM      4  H   GLN A   4       5.246  -0.216  22.565  0.00  0.00    +0.150 HD
ATOM      5  O   LEU A   3       7.587  -2.244  23.331  0.00  0.00    -0.274 OA
BRANCH   2   6
ATOM      6  CA  LEU A   3       5.256  -2.363  24.023  0.00  0.00    +0.159 C 
BRANCH   6   9
ATOM      7  C   THR A   2       4.964  -4.795  23.566  0.00  0.00    +0.236 C 
ATOM      8  O   THR A   2       4.052  -4.612  22.760  0.00  0.00    -0.274 OA
ATOM      9  N   LEU A   3       5.573  -3.770  24.249  0.00  0.00    -0.302 N 
ATOM     10  H   LEU A   3       6.393  -3.956  24.821  0.00  0.00    +0.150 HD
BRANCH   7  11
ATOM     11  CA  THR A   2       5.523  -6.194  23.856  0.00  0.00    +0.187 C 
BRANCH  11  13
ATOM     12  C   ALA A   1       7.914  -5.711  24.329  0.00  0.00    +0.230 C 
ATOM     13  N   THR A   2       6.647  -6.000  24.774  0.00  0.00    -0.301 N 
ATOM     14  H   THR A   2       6.483  -6.206  25.753  0.00  0.00    +0.150 HD
ATOM     15  O   ALA A   1       8.181  -5.457  23.156  0.00  0.00    -0.274 OA
BRANCH  12  16
ATOM     16  CA  ALA A   1       8.985  -5.691  25.438  0.00  0.00    +0.135 C 
ATOM     17  CB  ALA A   1       8.421  -5.030  26.690  0.00  0.00    +0.033 C 
BRANCH  16  18
ATOM     18  N   ALA A   1      10.178  -4.960  24.971  0.00  0.00    -0.320 NA
ATOM     19  H1  ALA A   1      10.283  -5.169  23.972  0.00  0.00    +0.119 HD
ATOM     20  H2  ALA A   1      10.998  -5.407  25.388  0.00  0.00    +0.119 HD
ENDBRANCH  16  18
ENDBRANCH  12  16
ENDBRANCH  11  13
BRANCH  11  21
ATOM     21  CB  THR A   2       4.414  -7.064  24.496  0.00  0.00    +0.141 C 
ATOM     22  CG2 THR A   2       3.867  -6.462  25.786  0.00  0.00    +0.040 C 
BRANCH  21  23
ATOM     23  OG1 THR A   2       3.318  -7.220  23.583  0.00  0.00    -0.390 OA
ATOM     24  HG1 THR A   2       2.977  -6.336  23.368  0.00  0.00    +0.210 HD
ENDBRANCH  21  23
ENDBRANCH  11  21
ENDBRANCH   7  11
ENDBRANCH   6   9
BRANCH   6  25
ATOM     25  CB  LEU A   3       5.016  -1.616  25.345  0.00  0.00    +0.034 C 
BRANCH  25  26
ATOM     26  CG  LEU A   3       4.424  -2.475  26.481  0.00  0.00    -0.015 C 
ATOM     27  CD2 LEU A   3       4.808  -1.873  27.836  0.00  0.00    +0.007 C 
ATOM     28  CD1 LEU A   3       2.902  -2.589  26.387  0.00  0.00    +0.007 C 
ENDBRANCH  25  26
ENDBRANCH   6  25
ENDBRANCH   2   6
ENDBRANCH   1   3
BRANCH   1  29
ATOM     29  C   GLN A   4       6.807   1.648  21.944  0.00  0.00    +0.234 C 
ATOM     30  O   GLN A   4       7.168   2.460  21.092  0.00  0.00    -0.274 OA
ATOM     31  N   ALA A   5       6.075   2.001  23.048  0.00  0.00    -0.303 N 
ATOM     32  H   ALA A   5       5.741   1.298  23.704  0.00  0.00    +0.149 HD
BRANCH  31  33
ATOM     33  CA  ALA A   5       5.728   3.383  23.353  0.00  0.00    +0.156 C 
ATOM     34  CB  ALA A   5       4.359   3.761  22.808  0.00  0.00    +0.038 C 
BRANCH  33  35
ATOM     35  C   ALA A   5       5.746   3.527  24.883  0.00  0.00    +0.234 C 
ATOM     36  N   ILE A   6       5.731   2.343  25.575  0.00  0.00    -0.302 N 
ATOM     37  H   ILE A   6       5.782   1.456  25.079  0.00  0.00    +0.150 HD
ATOM     38  O   ALA A   5       5.769   4.629  25.431  0.00  0.00    -0.274 OA
BRANCH  36  39
ATOM     39  CA  ILE A   6       5.720   2.262  27.038  0.00  0.00    +0.162 C 
BRANCH  39  40
ATOM     40  C   ILE A   6       6.885   1.302  27.371  0.00  0.00    +0.234 C 
ATOM     41  O   ILE A   6       7.251   1.100  28.530  0.00  0.00    -0.274 OA
ATOM     42  N   ALA A   7       7.502   0.721  26.291  0.00  0.00    -0.303 N 
ATOM     43  H   ALA A   7       7.214   0.954  25.345  0.00  0.00    +0.149 HD
BRANCH  42  44
ATOM     44  CA  ALA A   7       8.705  -0.093  26.422  0.00  0.00    +0.156 C 
ATOM     45  CB  ALA A   7       8.357  -1.573  26.508  0.00  0.00    +0.038 C 
BRANCH  44  46
ATOM     46  C   ALA A   7       9.602   0.197  25.206  0.00  0.00    +0.234 C 
ATOM     47  N   SER A   8       9.688   1.518  24.840  0.00  0.00    -0.302 N 
ATOM     48  H   SER A   8       9.338   2.242  25.463  0.00  0.00    +0.150 HD
ATOM     49  O   ALA A   7      10.193  -0.694  24.595  0.00  0.00    -0.274 OA
BRANCH  47  50
ATOM     50  CA  SER A   8      10.597   1.967  23.784  0.00  0.00    +0.161 C 
BRANCH  50  51
ATOM     51  C   SER A   8      10.478   3.480  23.676  0.00  0.00    +0.247 C 
ATOM     52  O   SER A   8      11.421   4.204  23.356  0.00  0.00    -0.299 OA
ENDBRANCH  50  51
BRANCH  50  53
ATOM     53  CB  SER A   8      10.293   1.327  22.427  0.00  0.00    +0.185 C 
BRANCH  53  54
ATOM     54  OG  SER A   8      10.123   2.321  21.418  0.00  0.00    -0.393 OA
ATOM     55  H   SER A   8       9.593   1.910  20.710  0.00  0.00    +0.209 HD
ENDBRANCH  53  54
ENDBRANCH  50  53
ENDBRANCH  47  50
ENDBRANCH  44  46
ENDBRANCH  42  44
ENDBRANCH  39  40
BRANCH  39  56
ATOM     56  CB  ILE A   6       4.364   1.727  27.588  0.00  0.00    +0.015 C 
ATOM     57  CG2 ILE A   6       3.912   2.517  28.826  0.00  0.00    +0.010 C 
BRANCH  56  58
ATOM     58  CG1 ILE A   6       3.260   1.741  26.502  0.00  0.00    +0.002 C 
ATOM     59  CD1 ILE A   6       2.370   2.977  26.515  0.00  0.00    +0.004 C 
ENDBRANCH  56  58
ENDBRANCH  39  56
ENDBRANCH  36  39
ENDBRANCH  33  35
ENDBRANCH  31  33
ENDBRANCH   1  29
BRANCH   1  60
ATOM     60  CB  GLN A   4       7.279  -0.323  20.418  0.00  0.00    +0.041 C 
BRANCH  60  61
ATOM     61  CG  GLN A   4       5.912  -0.633  19.811  0.00  0.00    +0.098 C 
BRANCH  61  62
ATOM     62  CD  GLN A   4       5.601   0.186  18.576  0.00  0.00    +0.211 C 
ATOM     63  OE1 GLN A   4       5.857  -0.203  17.442  0.00  0.00    -0.276 OA
ATOM     64  NE2 GLN A   4       5.091   1.431  18.781  0.00  0.00    -0.329 N 
ATOM     65 HE21 GLN A   4       4.843   1.801  19.686  0.00  0.00    +0.145 HD
ATOM     66 HE22 GLN A   4       4.885   1.986  17.961  0.00  0.00    +0.145 HD
ENDBRANCH  61  62
ENDBRANCH  60  61
ENDBRANCH   1  60
TORSDOF 27
ENDMDL
MODEL 8
REMARK VINA RESULT:      -6.2      2.130      7.066
REMARK  Name = ATLQAIAS-mmff94.pdb
REMARK  35 active torsions:
REMARK  status: ('A' for Active; 'I' for Inactive)
REMARK    1  A    between atoms: _1  and  _2
REMARK    2  A    between atoms: _2  and  _3
REMARK    3  A    between atoms: _2  and  _5
REMARK    4  A    between atoms: _11  and  _12
REMARK    5  A    between atoms: _12  and  _13
REMARK    6  A    between atoms: _12  and  _15
REMARK    7  A    between atoms: _15  and  _16
REMARK    8  A    between atoms: _15  and  _17
REMARK    9  A    between atoms: _25  and  _26
REMARK   10  A    between atoms: _26  and  _27
REMARK   11  A    between atoms: _26  and  _29
REMARK   12  A    between atoms: _29  and  _30
REMARK   13  A    between atoms: _30  and  _31
REMARK   14  A    between atoms: _30  and  _32
REMARK   15  A    between atoms: _44  and  _45
REMARK   16  A    between atoms: _45  and  _46
REMARK   17  A    between atoms: _45  and  _48
REMARK   18  A    between atoms: _48  and  _49
REMARK   19  A    between atoms: _49  and  _50
REMARK   20  A    between atoms: _61  and  _62
REMARK   21  A    between atoms: _62  and  _63
REMARK   22  A    between atoms: _62  and  _65
REMARK   23  A    between atoms: _71  and  _72
REMARK   24  A    between atoms: _72  and  _73
REMARK   25  A    between atoms: _72  and  _75
REMARK   26  A    between atoms: _75  and  _76
REMARK   27  A    between atoms: _75  and  _77
REMARK   28  A    between atoms: _76  and  _78
REMARK   29  A    between atoms: _90  and  _91
REMARK   30  A    between atoms: _91  and  _92
REMARK   31  A    between atoms: _91  and  _94
REMARK   32  A    between atoms: _100  and  _101
REMARK   33  A    between atoms: _101  and  _102
REMARK   34  A    between atoms: _101  and  _104
REMARK   35  A    between atoms: _104  and  _105
REMARK                            x       y       z     vdW  Elec       q    Type
REMARK                         _______ _______ _______ _____ _____    ______ ____
ROOT
ATOM      1  CA  GLN A   4       6.719  -0.609  21.099  0.00  0.00    +0.159 C 
ENDROOT
BRANCH   1   3
ATOM      2  C   LEU A   3       6.620   1.661  22.119  0.00  0.00    +0.234 C 
ATOM      3  N   GLN A   4       7.034   0.352  22.155  0.00  0.00    -0.302 N 
ATOM      4  H   GLN A   4       7.637   0.021  22.905  0.00  0.00    +0.150 HD
ATOM      5  O   LEU A   3       5.939   2.118  21.202  0.00  0.00    -0.274 OA
BRANCH   2   6
ATOM      6  CA  LEU A   3       7.044   2.512  23.335  0.00  0.00    +0.159 C 
BRANCH   6   9
ATOM      7  C   THR A   2       5.831   1.630  25.324  0.00  0.00    +0.236 C 
ATOM      8  O   THR A   2       4.870   2.381  25.166  0.00  0.00    -0.274 OA
ATOM      9  N   LEU A   3       6.939   1.654  24.511  0.00  0.00    -0.302 N 
ATOM     10  H   LEU A   3       7.659   0.944  24.612  0.00  0.00    +0.150 HD
BRANCH   7  11
ATOM     11  CA  THR A   2       5.862   0.573  26.436  0.00  0.00    +0.187 C 
BRANCH  11  13
ATOM     12  C   ALA A   1       6.976   1.119  28.589  0.00  0.00    +0.230 C 
ATOM     13  N   THR A   2       5.949   1.312  27.697  0.00  0.00    -0.301 N 
ATOM     14  H   THR A   2       5.155   1.891  27.947  0.00  0.00    +0.150 HD
ATOM     15  O   ALA A   1       7.963   0.427  28.350  0.00  0.00    -0.274 OA
BRANCH  12  16
ATOM     16  CA  ALA A   1       6.809   1.881  29.920  0.00  0.00    +0.135 C 
ATOM     17  CB  ALA A   1       5.608   2.814  29.834  0.00  0.00    +0.033 C 
BRANCH  16  18
ATOM     18  N   ALA A   1       8.032   2.652  30.213  0.00  0.00    -0.320 NA
ATOM     19  H1  ALA A   1       7.734   3.602  30.456  0.00  0.00    +0.119 HD
ATOM     20  H2  ALA A   1       8.533   2.785  29.331  0.00  0.00    +0.119 HD
ENDBRANCH  16  18
ENDBRANCH  12  16
ENDBRANCH  11  13
BRANCH  11  21
ATOM     21  CB  THR A   2       4.570  -0.278  26.367  0.00  0.00    +0.141 C 
ATOM     22  CG2 THR A   2       4.624  -1.501  27.277  0.00  0.00    +0.040 C 
BRANCH  21  23
ATOM     23  OG1 THR A   2       3.437   0.511  26.755  0.00  0.00    -0.390 OA
ATOM     24  HG1 THR A   2       3.764   1.337  27.148  0.00  0.00    +0.210 HD
ENDBRANCH  21  23
ENDBRANCH  11  21
ENDBRANCH   7  11
ENDBRANCH   6   9
BRANCH   6  25
ATOM     25  CB  LEU A   3       8.481   3.021  23.131  0.00  0.00    +0.034 C 
BRANCH  25  26
ATOM     26  CG  LEU A   3       8.678   4.530  23.376  0.00  0.00    -0.015 C 
ATOM     27  CD2 LEU A   3       7.543   5.314  22.711  0.00  0.00    +0.007 C 
ATOM     28  CD1 LEU A   3       8.728   4.872  24.867  0.00  0.00    +0.007 C 
ENDBRANCH  25  26
ENDBRANCH   6  25
ENDBRANCH   2   6
ENDBRANCH   1   3
BRANCH   1  29
ATOM     29  C   GLN A   4       6.690  -1.995  21.773  0.00  0.00    +0.234 C 
ATOM     30  O   GLN A   4       7.693  -2.484  22.292  0.00  0.00    -0.274 OA
ATOM     31  N   ALA A   5       5.493  -2.657  21.694  0.00  0.00    -0.303 N 
ATOM     32  H   ALA A   5       4.665  -2.205  21.313  0.00  0.00    +0.149 HD
BRANCH  31  33
ATOM     33  CA  ALA A   5       5.323  -4.033  22.145  0.00  0.00    +0.156 C 
ATOM     34  CB  ALA A   5       6.567  -4.873  21.893  0.00  0.00    +0.038 C 
BRANCH  33  35
ATOM     35  C   ALA A   5       5.015  -3.982  23.649  0.00  0.00    +0.234 C 
ATOM     36  N   ILE A   6       5.437  -5.075  24.363  0.00  0.00    -0.302 N 
ATOM     37  H   ILE A   6       5.978  -5.809  23.910  0.00  0.00    +0.150 HD
ATOM     38  O   ALA A   5       4.430  -3.028  24.160  0.00  0.00    -0.274 OA
BRANCH  36  39
ATOM     39  CA  ILE A   6       5.219  -5.232  25.803  0.00  0.00    +0.162 C 
BRANCH  39  40
ATOM     40  C   ILE A   6       6.561  -4.798  26.436  0.00  0.00    +0.234 C 
ATOM     41  O   ILE A   6       6.660  -4.539  27.637  0.00  0.00    -0.274 OA
ATOM     42  N   ALA A   7       7.619  -4.688  25.569  0.00  0.00    -0.303 N 
ATOM     43  H   ALA A   7       7.490  -4.853  24.574  0.00  0.00    +0.149 HD
BRANCH  42  44
ATOM     44  CA  ALA A   7       8.912  -4.153  25.976  0.00  0.00    +0.156 C 
ATOM     45  CB  ALA A   7      10.049  -4.849  25.240  0.00  0.00    +0.038 C 
BRANCH  44  46
ATOM     46  C   ALA A   7       8.906  -2.641  25.686  0.00  0.00    +0.234 C 
ATOM     47  N   SER A   8       9.647  -2.247  24.599  0.00  0.00    -0.302 N 
ATOM     48  H   SER A   8       9.995  -2.942  23.941  0.00  0.00    +0.150 HD
ATOM     49  O   ALA A   7       8.289  -1.838  26.387  0.00  0.00    -0.274 OA
BRANCH  47  50
ATOM     50  CA  SER A   8       9.639  -0.864  24.122  0.00  0.00    +0.161 C 
BRANCH  50  51
ATOM     51  C   SER A   8      10.369  -0.824  22.788  0.00  0.00    +0.247 C 
ATOM     52  O   SER A   8      10.272   0.118  22.000  0.00  0.00    -0.299 OA
ENDBRANCH  50  51
BRANCH  50  53
ATOM     53  CB  SER A   8      10.305   0.106  25.103  0.00  0.00    +0.185 C 
BRANCH  53  54
ATOM     54  OG  SER A   8       9.331   0.908  25.771  0.00  0.00    -0.393 OA
ATOM     55  H   SER A   8       8.714   0.290  26.205  0.00  0.00    +0.209 HD
ENDBRANCH  53  54
ENDBRANCH  50  53
ENDBRANCH  47  50
ENDBRANCH  44  46
ENDBRANCH  42  44
ENDBRANCH  39  40
BRANCH  39  56
ATOM     56  CB  ILE A   6       4.854  -6.698  26.187  0.00  0.00    +0.015 C 
ATOM     57  CG2 ILE A   6       4.301  -6.779  27.618  0.00  0.00    +0.010 C 
BRANCH  56  58
ATOM     58  CG1 ILE A   6       3.855  -7.321  25.181  0.00  0.00    +0.002 C 
ATOM     59  CD1 ILE A   6       2.394  -6.971  25.437  0.00  0.00    +0.004 C 
ENDBRANCH  56  58
ENDBRANCH  39  56
ENDBRANCH  36  39
ENDBRANCH  33  35
ENDBRANCH  31  33
ENDBRANCH   1  29
BRANCH   1  60
ATOM     60  CB  GLN A   4       7.782  -0.557  19.990  0.00  0.00    +0.041 C 
BRANCH  60  61
ATOM     61  CG  GLN A   4       7.433   0.391  18.843  0.00  0.00    +0.098 C 
BRANCH  61  62
ATOM     62  CD  GLN A   4       6.066   0.134  18.246  0.00  0.00    +0.211 C 
ATOM     63  OE1 GLN A   4       5.811  -0.864  17.581  0.00  0.00    -0.276 OA
ATOM     64  NE2 GLN A   4       5.135   1.113  18.409  0.00  0.00    -0.329 N 
ATOM     65 HE21 GLN A   4       5.277   1.947  18.959  0.00  0.00    +0.145 HD
ATOM     66 HE22 GLN A   4       4.219   0.951  18.009  0.00  0.00    +0.145 HD
ENDBRANCH  61  62
ENDBRANCH  60  61
ENDBRANCH   1  60
TORSDOF 27
ENDMDL
MODEL 9
REMARK VINA RESULT:      -6.2      2.491      7.134
REMARK  Name = ATLQAIAS-mmff94.pdb
REMARK  35 active torsions:
REMARK  status: ('A' for Active; 'I' for Inactive)
REMARK    1  A    between atoms: _1  and  _2
REMARK    2  A    between atoms: _2  and  _3
REMARK    3  A    between atoms: _2  and  _5
REMARK    4  A    between atoms: _11  and  _12
REMARK    5  A    between atoms: _12  and  _13
REMARK    6  A    between atoms: _12  and  _15
REMARK    7  A    between atoms: _15  and  _16
REMARK    8  A    between atoms: _15  and  _17
REMARK    9  A    between atoms: _25  and  _26
REMARK   10  A    between atoms: _26  and  _27
REMARK   11  A    between atoms: _26  and  _29
REMARK   12  A    between atoms: _29  and  _30
REMARK   13  A    between atoms: _30  and  _31
REMARK   14  A    between atoms: _30  and  _32
REMARK   15  A    between atoms: _44  and  _45
REMARK   16  A    between atoms: _45  and  _46
REMARK   17  A    between atoms: _45  and  _48
REMARK   18  A    between atoms: _48  and  _49
REMARK   19  A    between atoms: _49  and  _50
REMARK   20  A    between atoms: _61  and  _62
REMARK   21  A    between atoms: _62  and  _63
REMARK   22  A    between atoms: _62  and  _65
REMARK   23  A    between atoms: _71  and  _72
REMARK   24  A    between atoms: _72  and  _73
REMARK   25  A    between atoms: _72  and  _75
REMARK   26  A    between atoms: _75  and  _76
REMARK   27  A    between atoms: _75  and  _77
REMARK   28  A    between atoms: _76  and  _78
REMARK   29  A    between atoms: _90  and  _91
REMARK   30  A    between atoms: _91  and  _92
REMARK   31  A    between atoms: _91  and  _94
REMARK   32  A    between atoms: _100  and  _101
REMARK   33  A    between atoms: _101  and  _102
REMARK   34  A    between atoms: _101  and  _104
REMARK   35  A    between atoms: _104  and  _105
REMARK                            x       y       z     vdW  Elec       q    Type
REMARK                         _______ _______ _______ _____ _____    ______ ____
ROOT
ATOM      1  CA  GLN A   4       7.952  -1.261  22.999  0.00  0.00    +0.159 C 
ENDROOT
BRANCH   1   3
ATOM      2  C   LEU A   3       6.450  -0.506  24.838  0.00  0.00    +0.234 C 
ATOM      3  N   GLN A   4       6.983  -1.510  24.067  0.00  0.00    -0.302 N 
ATOM      4  H   GLN A   4       6.760  -2.484  24.260  0.00  0.00    +0.150 HD
ATOM      5  O   LEU A   3       6.737   0.680  24.677  0.00  0.00    -0.274 OA
BRANCH   2   6
ATOM      6  CA  LEU A   3       5.436  -0.972  25.903  0.00  0.00    +0.159 C 
BRANCH   6   9
ATOM      7  C   THR A   2       4.312  -3.165  25.542  0.00  0.00    +0.236 C 
ATOM      8  O   THR A   2       3.215  -2.653  25.318  0.00  0.00    -0.274 OA
ATOM      9  N   LEU A   3       5.426  -2.431  25.870  0.00  0.00    -0.302 N 
ATOM     10  H   LEU A   3       6.332  -2.885  25.940  0.00  0.00    +0.150 HD
BRANCH   7  11
ATOM     11  CA  THR A   2       4.536  -4.680  25.442  0.00  0.00    +0.187 C 
BRANCH  11  13
ATOM     12  C   ALA A   1       4.756  -5.258  23.035  0.00  0.00    +0.230 C 
ATOM     13  N   THR A   2       5.329  -4.895  24.230  0.00  0.00    -0.301 N 
ATOM     14  H   THR A   2       6.338  -4.882  24.332  0.00  0.00    +0.150 HD
ATOM     15  O   ALA A   1       3.542  -5.298  22.849  0.00  0.00    -0.274 OA
BRANCH  12  16
ATOM     16  CA  ALA A   1       5.771  -5.580  21.920  0.00  0.00    +0.135 C 
ATOM     17  CB  ALA A   1       7.155  -5.780  22.522  0.00  0.00    +0.033 C 
BRANCH  16  18
ATOM     18  N   ALA A   1       5.799  -4.481  20.935  0.00  0.00    -0.320 NA
ATOM     19  H1  ALA A   1       5.058  -3.824  21.203  0.00  0.00    +0.119 HD
ATOM     20  H2  ALA A   1       5.464  -4.856  20.044  0.00  0.00    +0.119 HD
ENDBRANCH  16  18
ENDBRANCH  12  16
ENDBRANCH  11  13
BRANCH  11  21
ATOM     21  CB  THR A   2       5.288  -5.169  26.704  0.00  0.00    +0.141 C 
ATOM     22  CG2 THR A   2       4.791  -6.524  27.195  0.00  0.00    +0.040 C 
BRANCH  21  23
ATOM     23  OG1 THR A   2       6.691  -5.286  26.430  0.00  0.00    -0.390 OA
ATOM     24  HG1 THR A   2       7.114  -5.706  27.198  0.00  0.00    +0.210 HD
ENDBRANCH  21  23
ENDBRANCH  11  21
ENDBRANCH   7  11
ENDBRANCH   6   9
BRANCH   6  25
ATOM     25  CB  LEU A   3       5.856  -0.438  27.282  0.00  0.00    +0.034 C 
BRANCH  25  26
ATOM     26  CG  LEU A   3       4.830   0.489  27.963  0.00  0.00    -0.015 C 
ATOM     27  CD2 LEU A   3       5.369   1.923  27.989  0.00  0.00    +0.007 C 
ATOM     28  CD1 LEU A   3       3.474   0.468  27.256  0.00  0.00    +0.007 C 
ENDBRANCH  25  26
ENDBRANCH   6  25
ENDBRANCH   2   6
ENDBRANCH   1   3
BRANCH   1  29
ATOM     29  C   GLN A   4       7.128  -0.903  21.746  0.00  0.00    +0.234 C 
ATOM     30  O   GLN A   4       6.489  -1.753  21.127  0.00  0.00    -0.274 OA
ATOM     31  N   ALA A   5       7.215   0.405  21.345  0.00  0.00    -0.303 N 
ATOM     32  H   ALA A   5       7.702   1.097  21.910  0.00  0.00    +0.149 HD
BRANCH  31  33
ATOM     33  CA  ALA A   5       6.624   0.887  20.103  0.00  0.00    +0.156 C 
ATOM     34  CB  ALA A   5       6.005  -0.240  19.290  0.00  0.00    +0.038 C 
BRANCH  33  35
ATOM     35  C   ALA A   5       5.549   1.917  20.484  0.00  0.00    +0.234 C 
ATOM     36  N   ILE A   6       5.771   2.573  21.668  0.00  0.00    -0.302 N 
ATOM     37  H   ILE A   6       6.631   2.419  22.189  0.00  0.00    +0.150 HD
ATOM     38  O   ALA A   5       4.567   2.124  19.771  0.00  0.00    -0.274 OA
BRANCH  36  39
ATOM     39  CA  ILE A   6       4.854   3.574  22.220  0.00  0.00    +0.162 C 
BRANCH  39  40
ATOM     40  C   ILE A   6       5.743   4.420  23.161  0.00  0.00    +0.234 C 
ATOM     41  O   ILE A   6       5.522   5.615  23.364  0.00  0.00    -0.274 OA
ATOM     42  N   ALA A   7       6.808   3.761  23.722  0.00  0.00    -0.303 N 
ATOM     43  H   ALA A   7       6.996   2.790  23.489  0.00  0.00    +0.149 HD
BRANCH  42  44
ATOM     44  CA  ALA A   7       7.822   4.446  24.515  0.00  0.00    +0.156 C 
ATOM     45  CB  ALA A   7       7.523   4.332  26.004  0.00  0.00    +0.038 C 
BRANCH  44  46
ATOM     46  C   ALA A   7       9.186   3.820  24.173  0.00  0.00    +0.234 C 
ATOM     47  N   SER A   8       9.262   2.457  24.323  0.00  0.00    -0.302 N 
ATOM     48  H   SER A   8       8.413   1.912  24.457  0.00  0.00    +0.150 HD
ATOM     49  O   ALA A   7      10.146   4.495  23.800  0.00  0.00    -0.274 OA
BRANCH  47  50
ATOM     50  CA  SER A   8      10.449   1.703  23.919  0.00  0.00    +0.161 C 
BRANCH  50  51
ATOM     51  C   SER A   8      10.207   1.162  22.518  0.00  0.00    +0.247 C 
ATOM     52  O   SER A   8       9.719   1.841  21.614  0.00  0.00    -0.299 OA
ENDBRANCH  50  51
BRANCH  50  53
ATOM     53  CB  SER A   8      10.769   0.546  24.871  0.00  0.00    +0.185 C 
BRANCH  53  54
ATOM     54  OG  SER A   8       9.666   0.271  25.732  0.00  0.00    -0.393 OA
ATOM     55  H   SER A   8       9.912  -0.514  26.256  0.00  0.00    +0.209 HD
ENDBRANCH  53  54
ENDBRANCH  50  53
ENDBRANCH  47  50
ENDBRANCH  44  46
ENDBRANCH  42  44
ENDBRANCH  39  40
BRANCH  39  56
ATOM     56  CB  ILE A   6       3.666   2.923  22.990  0.00  0.00    +0.015 C 
ATOM     57  CG2 ILE A   6       3.894   2.963  24.509  0.00  0.00    +0.010 C 
BRANCH  56  58
ATOM     58  CG1 ILE A   6       2.315   3.588  22.625  0.00  0.00    +0.002 C 
ATOM     59  CD1 ILE A   6       1.577   2.932  21.465  0.00  0.00    +0.004 C 
ENDBRANCH  56  58
ENDBRANCH  39  56
ENDBRANCH  36  39
ENDBRANCH  33  35
ENDBRANCH  31  33
ENDBRANCH   1  29
BRANCH   1  60
ATOM     60  CB  GLN A   4       8.813  -2.510  22.754  0.00  0.00    +0.041 C 
BRANCH  60  61
ATOM     61  CG  GLN A   4       9.805  -2.806  23.879  0.00  0.00    +0.098 C 
BRANCH  61  62
ATOM     62  CD  GLN A   4       9.210  -3.623  25.006  0.00  0.00    +0.211 C 
ATOM     63  OE1 GLN A   4       8.484  -3.136  25.866  0.00  0.00    -0.276 OA
ATOM     64  NE2 GLN A   4       9.585  -4.930  25.077  0.00  0.00    -0.329 N 
ATOM     65 HE21 GLN A   4      10.163  -5.393  24.392  0.00  0.00    +0.145 HD
ATOM     66 HE22 GLN A   4       9.194  -5.482  25.830  0.00  0.00    +0.145 HD
ENDBRANCH  61  62
ENDBRANCH  60  61
ENDBRANCH   1  60
TORSDOF 27
ENDMDL
MODEL 10
REMARK VINA RESULT:      -6.2      1.993      7.323
REMARK  Name = ATLQAIAS-mmff94.pdb
REMARK  35 active torsions:
REMARK  status: ('A' for Active; 'I' for Inactive)
REMARK    1  A    between atoms: _1  and  _2
REMARK    2  A    between atoms: _2  and  _3
REMARK    3  A    between atoms: _2  and  _5
REMARK    4  A    between atoms: _11  and  _12
REMARK    5  A    between atoms: _12  and  _13
REMARK    6  A    between atoms: _12  and  _15
REMARK    7  A    between atoms: _15  and  _16
REMARK    8  A    between atoms: _15  and  _17
REMARK    9  A    between atoms: _25  and  _26
REMARK   10  A    between atoms: _26  and  _27
REMARK   11  A    between atoms: _26  and  _29
REMARK   12  A    between atoms: _29  and  _30
REMARK   13  A    between atoms: _30  and  _31
REMARK   14  A    between atoms: _30  and  _32
REMARK   15  A    between atoms: _44  and  _45
REMARK   16  A    between atoms: _45  and  _46
REMARK   17  A    between atoms: _45  and  _48
REMARK   18  A    between atoms: _48  and  _49
REMARK   19  A    between atoms: _49  and  _50
REMARK   20  A    between atoms: _61  and  _62
REMARK   21  A    between atoms: _62  and  _63
REMARK   22  A    between atoms: _62  and  _65
REMARK   23  A    between atoms: _71  and  _72
REMARK   24  A    between atoms: _72  and  _73
REMARK   25  A    between atoms: _72  and  _75
REMARK   26  A    between atoms: _75  and  _76
REMARK   27  A    between atoms: _75  and  _77
REMARK   28  A    between atoms: _76  and  _78
REMARK   29  A    between atoms: _90  and  _91
REMARK   30  A    between atoms: _91  and  _92
REMARK   31  A    between atoms: _91  and  _94
REMARK   32  A    between atoms: _100  and  _101
REMARK   33  A    between atoms: _101  and  _102
REMARK   34  A    between atoms: _101  and  _104
REMARK   35  A    between atoms: _104  and  _105
REMARK                            x       y       z     vdW  Elec       q    Type
REMARK                         _______ _______ _______ _____ _____    ______ ____
ROOT
ATOM      1  CA  GLN A   4       4.386  -3.419  27.597  0.00  0.00    +0.159 C 
ENDROOT
BRANCH   1   3
ATOM      2  C   LEU A   3       4.087  -3.151  25.138  0.00  0.00    +0.234 C 
ATOM      3  N   GLN A   4       4.874  -3.469  26.219  0.00  0.00    -0.302 N 
ATOM      4  H   GLN A   4       5.822  -3.813  26.085  0.00  0.00    +0.150 HD
ATOM      5  O   LEU A   3       2.918  -2.787  25.251  0.00  0.00    -0.274 OA
BRANCH   2   6
ATOM      6  CA  LEU A   3       4.791  -3.254  23.769  0.00  0.00    +0.159 C 
BRANCH   6   9
ATOM      7  C   THR A   2       6.850  -1.853  23.820  0.00  0.00    +0.236 C 
ATOM      8  O   THR A   2       6.279  -0.862  23.365  0.00  0.00    -0.274 OA
ATOM      9  N   LEU A   3       6.217  -3.058  24.008  0.00  0.00    -0.302 N 
ATOM     10  H   LEU A   3       6.698  -3.815  24.486  0.00  0.00    +0.150 HD
BRANCH   7  11
ATOM     11  CA  THR A   2       8.324  -1.817  24.244  0.00  0.00    +0.187 C 
BRANCH  11  13
ATOM     12  C   ALA A   1       8.455  -3.503  26.065  0.00  0.00    +0.230 C 
ATOM     13  N   THR A   2       8.634  -3.156  24.747  0.00  0.00    -0.301 N 
ATOM     14  H   THR A   2       9.103  -3.790  24.110  0.00  0.00    +0.150 HD
ATOM     15  O   ALA A   1       7.900  -2.779  26.888  0.00  0.00    -0.274 OA
BRANCH  12  16
ATOM     16  CA  ALA A   1       8.978  -4.908  26.425  0.00  0.00    +0.135 C 
ATOM     17  CB  ALA A   1       9.319  -5.675  25.154  0.00  0.00    +0.033 C 
BRANCH  16  18
ATOM     18  N   ALA A   1       7.958  -5.639  27.202  0.00  0.00    -0.320 NA
ATOM     19  H1  ALA A   1       8.305  -6.596  27.322  0.00  0.00    +0.119 HD
ATOM     20  H2  ALA A   1       7.141  -5.762  26.600  0.00  0.00    +0.119 HD
ENDBRANCH  16  18
ENDBRANCH  12  16
ENDBRANCH  11  13
BRANCH  11  21
ATOM     21  CB  THR A   2       9.199  -1.455  23.019  0.00  0.00    +0.141 C 
ATOM     22  CG2 THR A   2      10.625  -1.982  23.142  0.00  0.00    +0.040 C 
BRANCH  21  23
ATOM     23  OG1 THR A   2       8.628  -2.004  21.824  0.00  0.00    -0.390 OA
ATOM     24  HG1 THR A   2       8.313  -1.266  21.275  0.00  0.00    +0.210 HD
ENDBRANCH  21  23
ENDBRANCH  11  21
ENDBRANCH   7  11
ENDBRANCH   6   9
BRANCH   6  25
ATOM     25  CB  LEU A   3       4.505  -4.630  23.145  0.00  0.00    +0.034 C 
BRANCH  25  26
ATOM     26  CG  LEU A   3       5.556  -5.715  23.450  0.00  0.00    -0.015 C 
ATOM     27  CD2 LEU A   3       4.893  -6.881  24.191  0.00  0.00    +0.007 C 
ATOM     28  CD1 LEU A   3       6.233  -6.237  22.182  0.00  0.00    +0.007 C 
ENDBRANCH  25  26
ENDBRANCH   6  25
ENDBRANCH   2   6
ENDBRANCH   1   3
BRANCH   1  29
ATOM     29  C   GLN A   4       4.490  -1.946  28.037  0.00  0.00    +0.234 C 
ATOM     30  O   GLN A   4       3.658  -1.434  28.786  0.00  0.00    -0.274 OA
ATOM     31  N   ALA A   5       5.529  -1.243  27.485  0.00  0.00    -0.303 N 
ATOM     32  H   ALA A   5       6.235  -1.707  26.917  0.00  0.00    +0.149 HD
BRANCH  31  33
ATOM     33  CA  ALA A   5       5.695   0.193  27.671  0.00  0.00    +0.156 C 
ATOM     34  CB  ALA A   5       7.150   0.573  27.905  0.00  0.00    +0.038 C 
BRANCH  33  35
ATOM     35  C   ALA A   5       5.167   0.878  26.402  0.00  0.00    +0.234 C 
ATOM     36  N   ILE A   6       5.700   2.116  26.148  0.00  0.00    -0.302 N 
ATOM     37  H   ILE A   6       6.443   2.487  26.736  0.00  0.00    +0.150 HD
ATOM     38  O   ALA A   5       4.325   0.345  25.679  0.00  0.00    -0.274 OA
BRANCH  36  39
ATOM     39  CA  ILE A   6       5.312   2.943  25.003  0.00  0.00    +0.162 C 
BRANCH  39  40
ATOM     40  C   ILE A   6       6.643   3.211  24.263  0.00  0.00    +0.234 C 
ATOM     41  O   ILE A   6       7.263   4.266  24.402  0.00  0.00    -0.274 OA
ATOM     42  N   ALA A   7       7.065   2.213  23.421  0.00  0.00    -0.303 N 
ATOM     43  H   ALA A   7       6.500   1.379  23.285  0.00  0.00    +0.149 HD
BRANCH  42  44
ATOM     44  CA  ALA A   7       8.219   2.366  22.543  0.00  0.00    +0.156 C 
ATOM     45  CB  ALA A   7       9.511   2.026  23.273  0.00  0.00    +0.038 C 
BRANCH  44  46
ATOM     46  C   ALA A   7       8.008   1.445  21.328  0.00  0.00    +0.234 C 
ATOM     47  N   SER A   8       6.722   1.384  20.851  0.00  0.00    -0.302 N 
ATOM     48  H   SER A   8       6.029   2.059  21.170  0.00  0.00    +0.150 HD
ATOM     49  O   ALA A   7       8.927   0.798  20.824  0.00  0.00    -0.274 OA
BRANCH  47  50
ATOM     50  CA  SER A   8       6.387   0.653  19.629  0.00  0.00    +0.161 C 
BRANCH  50  51
ATOM     51  C   SER A   8       5.280   1.414  18.915  0.00  0.00    +0.247 C 
ATOM     52  O   SER A   8       4.095   1.336  19.243  0.00  0.00    -0.299 OA
ENDBRANCH  50  51
BRANCH  50  53
ATOM     53  CB  SER A   8       5.931  -0.783  19.903  0.00  0.00    +0.185 C 
BRANCH  53  54
ATOM     54  OG  SER A   8       5.536  -1.435  18.697  0.00  0.00    -0.393 OA
ATOM     55  H   SER A   8       5.757  -2.379  18.806  0.00  0.00    +0.209 HD
ENDBRANCH  53  54
ENDBRANCH  50  53
ENDBRANCH  47  50
ENDBRANCH  44  46
ENDBRANCH  42  44
ENDBRANCH  39  40
BRANCH  39  56
ATOM     56  CB  ILE A   6       4.625   4.272  25.442  0.00  0.00    +0.015 C 
ATOM     57  CG2 ILE A   6       3.143   4.294  25.041  0.00  0.00    +0.010 C 
BRANCH  56  58
ATOM     58  CG1 ILE A   6       4.781   4.521  26.963  0.00  0.00    +0.002 C 
ATOM     59  CD1 ILE A   6       3.468   4.590  27.733  0.00  0.00    +0.004 C 
ENDBRANCH  56  58
ENDBRANCH  39  56
ENDBRANCH  36  39
ENDBRANCH  33  35
ENDBRANCH  31  33
ENDBRANCH   1  29
BRANCH   1  60
ATOM     60  CB  GLN A   4       5.235  -4.326  28.501  0.00  0.00    +0.041 C 
BRANCH  60  61
ATOM     61  CG  GLN A   4       4.413  -5.269  29.379  0.00  0.00    +0.098 C 
BRANCH  61  62
ATOM     62  CD  GLN A   4       4.225  -6.644  28.774  0.00  0.00    +0.211 C 
ATOM     63  OE1 GLN A   4       3.122  -7.161  28.634  0.00  0.00    -0.276 OA
ATOM     64  NE2 GLN A   4       5.356  -7.333  28.460  0.00  0.00    -0.329 N 
ATOM     65 HE21 GLN A   4       6.289  -6.957  28.535  0.00  0.00    +0.145 HD
ATOM     66 HE22 GLN A   4       5.239  -8.254  28.059  0.00  0.00    +0.145 HD
ENDBRANCH  61  62
ENDBRANCH  60  61
ENDBRANCH   1  60
TORSDOF 27
ENDMDL
MODEL 11
REMARK VINA RESULT:      -6.1      2.164      6.496
REMARK  Name = ATLQAIAS-mmff94.pdb
REMARK  35 active torsions:
REMARK  status: ('A' for Active; 'I' for Inactive)
REMARK    1  A    between atoms: _1  and  _2
REMARK    2  A    between atoms: _2  and  _3
REMARK    3  A    between atoms: _2  and  _5
REMARK    4  A    between atoms: _11  and  _12
REMARK    5  A    between atoms: _12  and  _13
REMARK    6  A    between atoms: _12  and  _15
REMARK    7  A    between atoms: _15  and  _16
REMARK    8  A    between atoms: _15  and  _17
REMARK    9  A    between atoms: _25  and  _26
REMARK   10  A    between atoms: _26  and  _27
REMARK   11  A    between atoms: _26  and  _29
REMARK   12  A    between atoms: _29  and  _30
REMARK   13  A    between atoms: _30  and  _31
REMARK   14  A    between atoms: _30  and  _32
REMARK   15  A    between atoms: _44  and  _45
REMARK   16  A    between atoms: _45  and  _46
REMARK   17  A    between atoms: _45  and  _48
REMARK   18  A    between atoms: _48  and  _49
REMARK   19  A    between atoms: _49  and  _50
REMARK   20  A    between atoms: _61  and  _62
REMARK   21  A    between atoms: _62  and  _63
REMARK   22  A    between atoms: _62  and  _65
REMARK   23  A    between atoms: _71  and  _72
REMARK   24  A    between atoms: _72  and  _73
REMARK   25  A    between atoms: _72  and  _75
REMARK   26  A    between atoms: _75  and  _76
REMARK   27  A    between atoms: _75  and  _77
REMARK   28  A    between atoms: _76  and  _78
REMARK   29  A    between atoms: _90  and  _91
REMARK   30  A    between atoms: _91  and  _92
REMARK   31  A    between atoms: _91  and  _94
REMARK   32  A    between atoms: _100  and  _101
REMARK   33  A    between atoms: _101  and  _102
REMARK   34  A    between atoms: _101  and  _104
REMARK   35  A    between atoms: _104  and  _105
REMARK                            x       y       z     vdW  Elec       q    Type
REMARK                         _______ _______ _______ _____ _____    ______ ____
ROOT
ATOM      1  CA  GLN A   4       6.792  -0.979  22.230  0.00  0.00    +0.159 C 
ENDROOT
BRANCH   1   3
ATOM      2  C   LEU A   3       6.901   1.159  23.504  0.00  0.00    +0.234 C 
ATOM      3  N   GLN A   4       7.152  -0.188  23.407  0.00  0.00    -0.302 N 
ATOM      4  H   GLN A   4       7.663  -0.673  24.141  0.00  0.00    +0.150 HD
ATOM      5  O   LEU A   3       6.339   1.797  22.615  0.00  0.00    -0.274 OA
BRANCH   2   6
ATOM      6  CA  LEU A   3       7.347   1.809  24.831  0.00  0.00    +0.159 C 
BRANCH   6   9
ATOM      7  C   THR A   2       5.269   2.285  26.120  0.00  0.00    +0.236 C 
ATOM      8  O   THR A   2       5.117   3.395  25.612  0.00  0.00    -0.274 OA
ATOM      9  N   LEU A   3       6.338   1.472  25.830  0.00  0.00    -0.302 N 
ATOM     10  H   LEU A   3       6.366   0.521  26.189  0.00  0.00    +0.150 HD
BRANCH   7  11
ATOM     11  CA  THR A   2       4.252   1.698  27.108  0.00  0.00    +0.187 C 
BRANCH  11  13
ATOM     12  C   ALA A   1       3.287  -0.587  26.959  0.00  0.00    +0.230 C 
ATOM     13  N   THR A   2       4.381   0.243  27.006  0.00  0.00    -0.301 N 
ATOM     14  H   THR A   2       5.314  -0.144  27.093  0.00  0.00    +0.150 HD
ATOM     15  O   ALA A   1       2.131  -0.182  26.859  0.00  0.00    -0.274 OA
BRANCH  12  16
ATOM     16  CA  ALA A   1       3.630  -2.090  27.002  0.00  0.00    +0.135 C 
ATOM     17  CB  ALA A   1       5.123  -2.272  27.248  0.00  0.00    +0.033 C 
BRANCH  16  18
ATOM     18  N   ALA A   1       3.243  -2.730  25.731  0.00  0.00    -0.320 NA
ATOM     19  H1  ALA A   1       3.727  -2.222  24.983  0.00  0.00    +0.119 HD
ATOM     20  H2  ALA A   1       2.259  -2.509  25.561  0.00  0.00    +0.119 HD
ENDBRANCH  16  18
ENDBRANCH  12  16
ENDBRANCH  11  13
BRANCH  11  21
ATOM     21  CB  THR A   2       4.583   2.196  28.536  0.00  0.00    +0.141 C 
ATOM     22  CG2 THR A   2       5.047   1.072  29.457  0.00  0.00    +0.040 C 
BRANCH  21  23
ATOM     23  OG1 THR A   2       5.622   3.184  28.488  0.00  0.00    -0.390 OA
ATOM     24  HG1 THR A   2       5.347   3.937  29.037  0.00  0.00    +0.210 HD
ENDBRANCH  21  23
ENDBRANCH  11  21
ENDBRANCH   7  11
ENDBRANCH   6   9
BRANCH   6  25
ATOM     25  CB  LEU A   3       8.735   1.277  25.224  0.00  0.00    +0.034 C 
BRANCH  25  26
ATOM     26  CG  LEU A   3       9.816   1.407  24.132  0.00  0.00    -0.015 C 
ATOM     27  CD2 LEU A   3      10.070   2.887  23.830  0.00  0.00    +0.007 C 
ATOM     28  CD1 LEU A   3      11.130   0.737  24.538  0.00  0.00    +0.007 C 
ENDBRANCH  25  26
ENDBRANCH   6  25
ENDBRANCH   2   6
ENDBRANCH   1   3
BRANCH   1  29
ATOM     29  C   GLN A   4       6.136  -2.268  22.763  0.00  0.00    +0.234 C 
ATOM     30  O   GLN A   4       5.420  -2.264  23.764  0.00  0.00    -0.274 OA
ATOM     31  N   ALA A   5       6.461  -3.413  22.084  0.00  0.00    -0.303 N 
ATOM     32  H   ALA A   5       7.007  -3.378  21.225  0.00  0.00    +0.149 HD
BRANCH  31  33
ATOM     33  CA  ALA A   5       6.054  -4.738  22.534  0.00  0.00    +0.156 C 
ATOM     34  CB  ALA A   5       5.946  -5.724  21.380  0.00  0.00    +0.038 C 
BRANCH  33  35
ATOM     35  C   ALA A   5       7.110  -5.218  23.543  0.00  0.00    +0.234 C 
ATOM     36  N   ILE A   6       6.761  -5.065  24.861  0.00  0.00    -0.302 N 
ATOM     37  H   ILE A   6       5.834  -4.729  25.112  0.00  0.00    +0.150 HD
ATOM     38  O   ALA A   5       8.184  -5.696  23.180  0.00  0.00    -0.274 OA
BRANCH  36  39
ATOM     39  CA  ILE A   6       7.635  -5.437  25.976  0.00  0.00    +0.162 C 
BRANCH  39  40
ATOM     40  C   ILE A   6       6.658  -5.758  27.130  0.00  0.00    +0.234 C 
ATOM     41  O   ILE A   6       7.058  -6.047  28.259  0.00  0.00    -0.274 OA
ATOM     42  N   ALA A   7       5.326  -5.733  26.804  0.00  0.00    -0.303 N 
ATOM     43  H   ALA A   7       5.031  -5.548  25.849  0.00  0.00    +0.149 HD
BRANCH  42  44
ATOM     44  CA  ALA A   7       4.284  -6.151  27.735  0.00  0.00    +0.156 C 
ATOM     45  CB  ALA A   7       4.219  -5.219  28.937  0.00  0.00    +0.038 C 
BRANCH  44  46
ATOM     46  C   ALA A   7       2.949  -6.165  26.969  0.00  0.00    +0.234 C 
ATOM     47  N   SER A   8       3.029  -6.552  25.654  0.00  0.00    -0.302 N 
ATOM     48  H   SER A   8       3.882  -6.981  25.300  0.00  0.00    +0.150 HD
ATOM     49  O   ALA A   7       1.884  -5.841  27.495  0.00  0.00    -0.274 OA
BRANCH  47  50
ATOM     50  CA  SER A   8       1.833  -6.735  24.830  0.00  0.00    +0.161 C 
BRANCH  50  51
ATOM     51  C   SER A   8       1.960  -8.069  24.110  0.00  0.00    +0.247 C 
ATOM     52  O   SER A   8       2.373  -9.090  24.661  0.00  0.00    -0.299 OA
ENDBRANCH  50  51
BRANCH  50  53
ATOM     53  CB  SER A   8       1.640  -5.613  23.807  0.00  0.00    +0.185 C 
BRANCH  53  54
ATOM     54  OG  SER A   8       2.845  -4.871  23.626  0.00  0.00    -0.393 OA
ATOM     55  H   SER A   8       2.854  -4.579  22.695  0.00  0.00    +0.209 HD
ENDBRANCH  53  54
ENDBRANCH  50  53
ENDBRANCH  47  50
ENDBRANCH  44  46
ENDBRANCH  42  44
ENDBRANCH  39  40
BRANCH  39  56
ATOM     56  CB  ILE A   6       8.618  -4.290  26.361  0.00  0.00    +0.015 C 
ATOM     57  CG2 ILE A   6      10.081  -4.726  26.188  0.00  0.00    +0.010 C 
BRANCH  56  58
ATOM     58  CG1 ILE A   6       8.336  -3.000  25.553  0.00  0.00    +0.002 C 
ATOM     59  CD1 ILE A   6       9.435  -2.611  24.572  0.00  0.00    +0.004 C 
ENDBRANCH  56  58
ENDBRANCH  39  56
ENDBRANCH  36  39
ENDBRANCH  33  35
ENDBRANCH  31  33
ENDBRANCH   1  29
BRANCH   1  60
ATOM     60  CB  GLN A   4       8.041  -1.300  21.394  0.00  0.00    +0.041 C 
BRANCH  60  61
ATOM     61  CG  GLN A   4       8.522  -0.134  20.531  0.00  0.00    +0.098 C 
BRANCH  61  62
ATOM     62  CD  GLN A   4       7.555   0.237  19.427  0.00  0.00    +0.211 C 
ATOM     63  OE1 GLN A   4       7.735  -0.077  18.255  0.00  0.00    -0.276 OA
ATOM     64  NE2 GLN A   4       6.497   1.017  19.778  0.00  0.00    -0.329 N 
ATOM     65 HE21 GLN A   4       6.284   1.293  20.725  0.00  0.00    +0.145 HD
ATOM     66 HE22 GLN A   4       5.848   1.272  19.045  0.00  0.00    +0.145 HD
ENDBRANCH  61  62
ENDBRANCH  60  61
ENDBRANCH   1  60
TORSDOF 27
ENDMDL
MODEL 12
REMARK VINA RESULT:      -6.1      2.403      7.147
REMARK  Name = ATLQAIAS-mmff94.pdb
REMARK  35 active torsions:
REMARK  status: ('A' for Active; 'I' for Inactive)
REMARK    1  A    between atoms: _1  and  _2
REMARK    2  A    between atoms: _2  and  _3
REMARK    3  A    between atoms: _2  and  _5
REMARK    4  A    between atoms: _11  and  _12
REMARK    5  A    between atoms: _12  and  _13
REMARK    6  A    between atoms: _12  and  _15
REMARK    7  A    between atoms: _15  and  _16
REMARK    8  A    between atoms: _15  and  _17
REMARK    9  A    between atoms: _25  and  _26
REMARK   10  A    between atoms: _26  and  _27
REMARK   11  A    between atoms: _26  and  _29
REMARK   12  A    between atoms: _29  and  _30
REMARK   13  A    between atoms: _30  and  _31
REMARK   14  A    between atoms: _30  and  _32
REMARK   15  A    between atoms: _44  and  _45
REMARK   16  A    between atoms: _45  and  _46
REMARK   17  A    between atoms: _45  and  _48
REMARK   18  A    between atoms: _48  and  _49
REMARK   19  A    between atoms: _49  and  _50
REMARK   20  A    between atoms: _61  and  _62
REMARK   21  A    between atoms: _62  and  _63
REMARK   22  A    between atoms: _62  and  _65
REMARK   23  A    between atoms: _71  and  _72
REMARK   24  A    between atoms: _72  and  _73
REMARK   25  A    between atoms: _72  and  _75
REMARK   26  A    between atoms: _75  and  _76
REMARK   27  A    between atoms: _75  and  _77
REMARK   28  A    between atoms: _76  and  _78
REMARK   29  A    between atoms: _90  and  _91
REMARK   30  A    between atoms: _91  and  _92
REMARK   31  A    between atoms: _91  and  _94
REMARK   32  A    between atoms: _100  and  _101
REMARK   33  A    between atoms: _101  and  _102
REMARK   34  A    between atoms: _101  and  _104
REMARK   35  A    between atoms: _104  and  _105
REMARK                            x       y       z     vdW  Elec       q    Type
REMARK                         _______ _______ _______ _____ _____    ______ ____
ROOT
ATOM      1  CA  GLN A   4       8.201  -3.165  22.780  0.00  0.00    +0.159 C 
ENDROOT
BRANCH   1   3
ATOM      2  C   LEU A   3       8.542  -4.228  25.007  0.00  0.00    +0.234 C 
ATOM      3  N   GLN A   4       8.057  -3.201  24.236  0.00  0.00    -0.302 N 
ATOM      4  H   GLN A   4       7.519  -2.447  24.658  0.00  0.00    +0.150 HD
ATOM      5  O   LEU A   3       9.148  -5.188  24.532  0.00  0.00    -0.274 OA
BRANCH   2   6
ATOM      6  CA  LEU A   3       8.301  -4.074  26.524  0.00  0.00    +0.159 C 
BRANCH   6   9
ATOM      7  C   THR A   2       7.485  -1.737  26.810  0.00  0.00    +0.236 C 
ATOM      8  O   THR A   2       8.621  -1.267  26.865  0.00  0.00    -0.274 OA
ATOM      9  N   LEU A   3       7.241  -3.084  26.686  0.00  0.00    -0.302 N 
ATOM     10  H   LEU A   3       6.292  -3.416  26.536  0.00  0.00    +0.150 HD
BRANCH   7  11
ATOM     11  CA  THR A   2       6.235  -0.848  26.846  0.00  0.00    +0.187 C 
BRANCH  11  13
ATOM     12  C   ALA A   1       6.202   1.006  28.500  0.00  0.00    +0.230 C 
ATOM     13  N   THR A   2       6.681   0.458  27.334  0.00  0.00    -0.301 N 
ATOM     14  H   THR A   2       7.271   1.004  26.716  0.00  0.00    +0.150 HD
ATOM     15  O   ALA A   1       5.480   0.400  29.288  0.00  0.00    -0.274 OA
BRANCH  12  16
ATOM     16  CA  ALA A   1       6.680   2.448  28.764  0.00  0.00    +0.135 C 
ATOM     17  CB  ALA A   1       7.051   3.119  27.448  0.00  0.00    +0.033 C 
BRANCH  16  18
ATOM     18  N   ALA A   1       7.842   2.433  29.672  0.00  0.00    -0.320 NA
ATOM     19  H1  ALA A   1       8.534   3.080  29.280  0.00  0.00    +0.119 HD
ATOM     20  H2  ALA A   1       8.297   1.522  29.577  0.00  0.00    +0.119 HD
ENDBRANCH  16  18
ENDBRANCH  12  16
ENDBRANCH  11  13
BRANCH  11  21
ATOM     21  CB  THR A   2       5.640  -0.746  25.420  0.00  0.00    +0.141 C 
ATOM     22  CG2 THR A   2       4.813  -1.970  25.041  0.00  0.00    +0.040 C 
BRANCH  21  23
ATOM     23  OG1 THR A   2       4.794   0.408  25.318  0.00  0.00    -0.390 OA
ATOM     24  HG1 THR A   2       5.303   1.118  24.893  0.00  0.00    +0.210 HD
ENDBRANCH  21  23
ENDBRANCH  11  21
ENDBRANCH   7  11
ENDBRANCH   6   9
BRANCH   6  25
ATOM     25  CB  LEU A   3       7.904  -5.433  27.123  0.00  0.00    +0.034 C 
BRANCH  25  26
ATOM     26  CG  LEU A   3       6.434  -5.542  27.573  0.00  0.00    -0.015 C 
ATOM     27  CD2 LEU A   3       5.598  -6.176  26.456  0.00  0.00    +0.007 C 
ATOM     28  CD1 LEU A   3       6.281  -6.366  28.853  0.00  0.00    +0.007 C 
ENDBRANCH  25  26
ENDBRANCH   6  25
ENDBRANCH   2   6
ENDBRANCH   1   3
BRANCH   1  29
ATOM     29  C   GLN A   4       8.902  -1.833  22.450  0.00  0.00    +0.234 C 
ATOM     30  O   GLN A   4      10.091  -1.788  22.137  0.00  0.00    -0.274 OA
ATOM     31  N   ALA A   5       8.126  -0.712  22.594  0.00  0.00    -0.303 N 
ATOM     32  H   ALA A   5       7.131  -0.784  22.795  0.00  0.00    +0.149 HD
BRANCH  31  33
ATOM     33  CA  ALA A   5       8.661   0.638  22.468  0.00  0.00    +0.156 C 
ATOM     34  CB  ALA A   5       8.455   1.205  21.071  0.00  0.00    +0.038 C 
BRANCH  33  35
ATOM     35  C   ALA A   5       7.938   1.510  23.506  0.00  0.00    +0.234 C 
ATOM     36  N   ILE A   6       7.023   2.389  22.985  0.00  0.00    -0.302 N 
ATOM     37  H   ILE A   6       6.810   2.381  21.990  0.00  0.00    +0.150 HD
ATOM     38  O   ALA A   5       8.176   1.418  24.710  0.00  0.00    -0.274 OA
BRANCH  36  39
ATOM     39  CA  ILE A   6       6.246   3.324  23.802  0.00  0.00    +0.162 C 
BRANCH  39  40
ATOM     40  C   ILE A   6       4.791   3.133  23.313  0.00  0.00    +0.234 C 
ATOM     41  O   ILE A   6       3.884   2.812  24.081  0.00  0.00    -0.274 OA
ATOM     42  N   ALA A   7       4.590   3.310  21.967  0.00  0.00    -0.303 N 
ATOM     43  H   ALA A   7       5.371   3.518  21.351  0.00  0.00    +0.149 HD
BRANCH  42  44
ATOM     44  CA  ALA A   7       3.312   3.028  21.323  0.00  0.00    +0.156 C 
ATOM     45  CB  ALA A   7       2.509   4.305  21.119  0.00  0.00    +0.038 C 
BRANCH  44  46
ATOM     46  C   ALA A   7       3.608   2.336  19.981  0.00  0.00    +0.234 C 
ATOM     47  N   SER A   8       4.798   1.655  19.919  0.00  0.00    -0.302 N 
ATOM     48  H   SER A   8       5.326   1.473  20.771  0.00  0.00    +0.150 HD
ATOM     49  O   ALA A   7       2.835   2.397  19.023  0.00  0.00    -0.274 OA
BRANCH  47  50
ATOM     50  CA  SER A   8       5.163   0.844  18.756  0.00  0.00    +0.161 C 
BRANCH  50  51
ATOM     51  C   SER A   8       5.608  -0.522  19.258  0.00  0.00    +0.247 C 
ATOM     52  O   SER A   8       5.882  -1.455  18.503  0.00  0.00    -0.299 OA
ENDBRANCH  50  51
BRANCH  50  53
ATOM     53  CB  SER A   8       6.279   1.475  17.919  0.00  0.00    +0.185 C 
BRANCH  53  54
ATOM     54  OG  SER A   8       5.773   1.973  16.681  0.00  0.00    -0.393 OA
ATOM     55  H   SER A   8       4.823   1.749  16.660  0.00  0.00    +0.209 HD
ENDBRANCH  53  54
ENDBRANCH  50  53
ENDBRANCH  47  50
ENDBRANCH  44  46
ENDBRANCH  42  44
ENDBRANCH  39  40
BRANCH  39  56
ATOM     56  CB  ILE A   6       6.720   4.797  23.623  0.00  0.00    +0.015 C 
ATOM     57  CG2 ILE A   6       5.586   5.790  23.920  0.00  0.00    +0.010 C 
BRANCH  56  58
ATOM     58  CG1 ILE A   6       7.960   5.110  24.497  0.00  0.00    +0.002 C 
ATOM     59  CD1 ILE A   6       9.293   5.019  23.766  0.00  0.00    +0.004 C 
ENDBRANCH  56  58
ENDBRANCH  39  56
ENDBRANCH  36  39
ENDBRANCH  33  35
ENDBRANCH  31  33
ENDBRANCH   1  29
BRANCH   1  60
ATOM     60  CB  GLN A   4       6.824  -3.246  22.102  0.00  0.00    +0.041 C 
BRANCH  60  61
ATOM     61  CG  GLN A   4       6.442  -4.654  21.646  0.00  0.00    +0.098 C 
BRANCH  61  62
ATOM     62  CD  GLN A   4       5.278  -5.241  22.415  0.00  0.00    +0.211 C 
ATOM     63  OE1 GLN A   4       4.286  -4.587  22.716  0.00  0.00    -0.276 OA
ATOM     64  NE2 GLN A   4       5.413  -6.527  22.839  0.00  0.00    -0.329 N 
ATOM     65 HE21 GLN A   4       6.195  -7.122  22.609  0.00  0.00    +0.145 HD
ATOM     66 HE22 GLN A   4       4.640  -6.926  23.357  0.00  0.00    +0.145 HD
ENDBRANCH  61  62
ENDBRANCH  60  61
ENDBRANCH   1  60
TORSDOF 27
ENDMDL
MODEL 13
REMARK VINA RESULT:      -6.1      2.021      6.568
REMARK  Name = ATLQAIAS-mmff94.pdb
REMARK  35 active torsions:
REMARK  status: ('A' for Active; 'I' for Inactive)
REMARK    1  A    between atoms: _1  and  _2
REMARK    2  A    between atoms: _2  and  _3
REMARK    3  A    between atoms: _2  and  _5
REMARK    4  A    between atoms: _11  and  _12
REMARK    5  A    between atoms: _12  and  _13
REMARK    6  A    between atoms: _12  and  _15
REMARK    7  A    between atoms: _15  and  _16
REMARK    8  A    between atoms: _15  and  _17
REMARK    9  A    between atoms: _25  and  _26
REMARK   10  A    between atoms: _26  and  _27
REMARK   11  A    between atoms: _26  and  _29
REMARK   12  A    between atoms: _29  and  _30
REMARK   13  A    between atoms: _30  and  _31
REMARK   14  A    between atoms: _30  and  _32
REMARK   15  A    between atoms: _44  and  _45
REMARK   16  A    between atoms: _45  and  _46
REMARK   17  A    between atoms: _45  and  _48
REMARK   18  A    between atoms: _48  and  _49
REMARK   19  A    between atoms: _49  and  _50
REMARK   20  A    between atoms: _61  and  _62
REMARK   21  A    between atoms: _62  and  _63
REMARK   22  A    between atoms: _62  and  _65
REMARK   23  A    between atoms: _71  and  _72
REMARK   24  A    between atoms: _72  and  _73
REMARK   25  A    between atoms: _72  and  _75
REMARK   26  A    between atoms: _75  and  _76
REMARK   27  A    between atoms: _75  and  _77
REMARK   28  A    between atoms: _76  and  _78
REMARK   29  A    between atoms: _90  and  _91
REMARK   30  A    between atoms: _91  and  _92
REMARK   31  A    between atoms: _91  and  _94
REMARK   32  A    between atoms: _100  and  _101
REMARK   33  A    between atoms: _101  and  _102
REMARK   34  A    between atoms: _101  and  _104
REMARK   35  A    between atoms: _104  and  _105
REMARK                            x       y       z     vdW  Elec       q    Type
REMARK                         _______ _______ _______ _____ _____    ______ ____
ROOT
ATOM      1  CA  GLN A   4       9.306  -1.495  24.966  0.00  0.00    +0.159 C 
ENDROOT
BRANCH   1   3
ATOM      2  C   LEU A   3       8.854  -3.901  24.502  0.00  0.00    +0.234 C 
ATOM      3  N   GLN A   4       8.407  -2.615  24.683  0.00  0.00    -0.302 N 
ATOM      4  H   GLN A   4       7.423  -2.387  24.563  0.00  0.00    +0.150 HD
ATOM      5  O   LEU A   3      10.042  -4.210  24.580  0.00  0.00    -0.274 OA
BRANCH   2   6
ATOM      6  CA  LEU A   3       7.747  -4.941  24.225  0.00  0.00    +0.159 C 
BRANCH   6   9
ATOM      7  C   THR A   2       7.116  -5.345  26.601  0.00  0.00    +0.236 C 
ATOM      8  O   THR A   2       8.172  -5.922  26.863  0.00  0.00    -0.274 OA
ATOM      9  N   LEU A   3       6.814  -4.876  25.345  0.00  0.00    -0.302 N 
ATOM     10  H   LEU A   3       5.981  -4.312  25.201  0.00  0.00    +0.150 HD
BRANCH   7  11
ATOM     11  CA  THR A   2       6.052  -5.074  27.673  0.00  0.00    +0.187 C 
BRANCH  11  13
ATOM     12  C   ALA A   1       4.124  -3.545  27.324  0.00  0.00    +0.230 C 
ATOM     13  N   THR A   2       4.850  -4.651  26.952  0.00  0.00    -0.301 N 
ATOM     14  H   THR A   2       4.499  -5.277  26.235  0.00  0.00    +0.150 HD
ATOM     15  O   ALA A   1       4.491  -2.752  28.188  0.00  0.00    -0.274 OA
BRANCH  12  16
ATOM     16  CA  ALA A   1       2.814  -3.353  26.535  0.00  0.00    +0.135 C 
ATOM     17  CB  ALA A   1       3.011  -3.794  25.090  0.00  0.00    +0.033 C 
BRANCH  16  18
ATOM     18  N   ALA A   1       2.402  -1.937  26.582  0.00  0.00    -0.320 NA
ATOM     19  H1  ALA A   1       2.848  -1.471  25.785  0.00  0.00    +0.119 HD
ATOM     20  H2  ALA A   1       2.864  -1.508  27.388  0.00  0.00    +0.119 HD
ENDBRANCH  16  18
ENDBRANCH  12  16
ENDBRANCH  11  13
BRANCH  11  21
ATOM     21  CB  THR A   2       5.800  -6.370  28.482  0.00  0.00    +0.141 C 
ATOM     22  CG2 THR A   2       5.099  -6.105  29.810  0.00  0.00    +0.040 C 
BRANCH  21  23
ATOM     23  OG1 THR A   2       4.986  -7.276  27.725  0.00  0.00    -0.390 OA
ATOM     24  HG1 THR A   2       5.563  -7.967  27.359  0.00  0.00    +0.210 HD
ENDBRANCH  21  23
ENDBRANCH  11  21
ENDBRANCH   7  11
ENDBRANCH   6   9
BRANCH   6  25
ATOM     25  CB  LEU A   3       7.056  -4.614  22.892  0.00  0.00    +0.034 C 
BRANCH  25  26
ATOM     26  CG  LEU A   3       6.270  -5.781  22.262  0.00  0.00    -0.015 C 
ATOM     27  CD2 LEU A   3       4.828  -5.771  22.780  0.00  0.00    +0.007 C 
ATOM     28  CD1 LEU A   3       6.262  -5.716  20.734  0.00  0.00    +0.007 C 
ENDBRANCH  25  26
ENDBRANCH   6  25
ENDBRANCH   2   6
ENDBRANCH   1   3
BRANCH   1  29
ATOM     29  C   GLN A   4       8.638  -0.682  26.093  0.00  0.00    +0.234 C 
ATOM     30  O   GLN A   4       9.047  -0.727  27.252  0.00  0.00    -0.274 OA
ATOM     31  N   ALA A   5       7.530   0.032  25.719  0.00  0.00    -0.303 N 
ATOM     32  H   ALA A   5       7.251   0.098  24.743  0.00  0.00    +0.149 HD
BRANCH  31  33
ATOM     33  CA  ALA A   5       6.689   0.738  26.678  0.00  0.00    +0.156 C 
ATOM     34  CB  ALA A   5       7.245   2.113  27.020  0.00  0.00    +0.038 C 
BRANCH  33  35
ATOM     35  C   ALA A   5       5.296   0.873  26.044  0.00  0.00    +0.234 C 
ATOM     36  N   ILE A   6       4.964   2.142  25.642  0.00  0.00    -0.302 N 
ATOM     37  H   ILE A   6       5.644   2.896  25.704  0.00  0.00    +0.150 HD
ATOM     38  O   ALA A   5       4.544  -0.093  25.917  0.00  0.00    -0.274 OA
BRANCH  36  39
ATOM     39  CA  ILE A   6       3.675   2.486  25.038  0.00  0.00    +0.162 C 
BRANCH  39  40
ATOM     40  C   ILE A   6       4.048   3.032  23.640  0.00  0.00    +0.234 C 
ATOM     41  O   ILE A   6       3.190   3.398  22.835  0.00  0.00    -0.274 OA
ATOM     42  N   ALA A   7       5.388   3.048  23.347  0.00  0.00    -0.303 N 
ATOM     43  H   ALA A   7       6.066   2.684  24.012  0.00  0.00    +0.149 HD
BRANCH  42  44
ATOM     44  CA  ALA A   7       5.896   3.395  22.025  0.00  0.00    +0.156 C 
ATOM     45  CB  ALA A   7       6.910   4.528  22.109  0.00  0.00    +0.038 C 
BRANCH  44  46
ATOM     46  C   ALA A   7       6.527   2.129  21.419  0.00  0.00    +0.234 C 
ATOM     47  N   SER A   8       5.846   1.581  20.360  0.00  0.00    -0.302 N 
ATOM     48  H   SER A   8       5.098   2.106  19.910  0.00  0.00    +0.150 HD
ATOM     49  O   ALA A   7       7.566   1.634  21.858  0.00  0.00    -0.274 OA
BRANCH  47  50
ATOM     50  CA  SER A   8       6.382   0.452  19.599  0.00  0.00    +0.161 C 
BRANCH  50  51
ATOM     51  C   SER A   8       5.968   0.626  18.146  0.00  0.00    +0.247 C 
ATOM     52  O   SER A   8       5.761  -0.324  17.390  0.00  0.00    -0.299 OA
ENDBRANCH  50  51
BRANCH  50  53
ATOM     53  CB  SER A   8       5.888  -0.902  20.118  0.00  0.00    +0.185 C 
BRANCH  53  54
ATOM     54  OG  SER A   8       6.362  -1.148  21.441  0.00  0.00    -0.393 OA
ATOM     55  H   SER A   8       5.584  -1.399  21.973  0.00  0.00    +0.209 HD
ENDBRANCH  53  54
ENDBRANCH  50  53
ENDBRANCH  47  50
ENDBRANCH  44  46
ENDBRANCH  42  44
ENDBRANCH  39  40
BRANCH  39  56
ATOM     56  CB  ILE A   6       2.896   3.545  25.875  0.00  0.00    +0.015 C 
ATOM     57  CG2 ILE A   6       2.483   2.982  27.243  0.00  0.00    +0.010 C 
BRANCH  56  58
ATOM     58  CG1 ILE A   6       3.711   4.850  26.048  0.00  0.00    +0.002 C 
ATOM     59  CD1 ILE A   6       4.309   5.047  27.435  0.00  0.00    +0.004 C 
ENDBRANCH  56  58
ENDBRANCH  39  56
ENDBRANCH  36  39
ENDBRANCH  33  35
ENDBRANCH  31  33
ENDBRANCH   1  29
BRANCH   1  60
ATOM     60  CB  GLN A   4       9.506  -0.635  23.709  0.00  0.00    +0.041 C 
BRANCH  60  61
ATOM     61  CG  GLN A   4      10.648   0.374  23.825  0.00  0.00    +0.098 C 
BRANCH  61  62
ATOM     62  CD  GLN A   4      10.214   1.805  23.591  0.00  0.00    +0.211 C 
ATOM     63  OE1 GLN A   4       9.696   2.491  24.465  0.00  0.00    -0.276 OA
ATOM     64  NE2 GLN A   4      10.349   2.284  22.325  0.00  0.00    -0.329 N 
ATOM     65 HE21 GLN A   4      10.782   1.777  21.568  0.00  0.00    +0.145 HD
ATOM     66 HE22 GLN A   4      10.057   3.239  22.159  0.00  0.00    +0.145 HD
ENDBRANCH  61  62
ENDBRANCH  60  61
ENDBRANCH   1  60
TORSDOF 27
ENDMDL
MODEL 14
REMARK VINA RESULT:      -6.1      1.999      2.861
REMARK  Name = ATLQAIAS-mmff94.pdb
REMARK  35 active torsions:
REMARK  status: ('A' for Active; 'I' for Inactive)
REMARK    1  A    between atoms: _1  and  _2
REMARK    2  A    between atoms: _2  and  _3
REMARK    3  A    between atoms: _2  and  _5
REMARK    4  A    between atoms: _11  and  _12
REMARK    5  A    between atoms: _12  and  _13
REMARK    6  A    between atoms: _12  and  _15
REMARK    7  A    between atoms: _15  and  _16
REMARK    8  A    between atoms: _15  and  _17
REMARK    9  A    between atoms: _25  and  _26
REMARK   10  A    between atoms: _26  and  _27
REMARK   11  A    between atoms: _26  and  _29
REMARK   12  A    between atoms: _29  and  _30
REMARK   13  A    between atoms: _30  and  _31
REMARK   14  A    between atoms: _30  and  _32
REMARK   15  A    between atoms: _44  and  _45
REMARK   16  A    between atoms: _45  and  _46
REMARK   17  A    between atoms: _45  and  _48
REMARK   18  A    between atoms: _48  and  _49
REMARK   19  A    between atoms: _49  and  _50
REMARK   20  A    between atoms: _61  and  _62
REMARK   21  A    between atoms: _62  and  _63
REMARK   22  A    between atoms: _62  and  _65
REMARK   23  A    between atoms: _71  and  _72
REMARK   24  A    between atoms: _72  and  _73
REMARK   25  A    between atoms: _72  and  _75
REMARK   26  A    between atoms: _75  and  _76
REMARK   27  A    between atoms: _75  and  _77
REMARK   28  A    between atoms: _76  and  _78
REMARK   29  A    between atoms: _90  and  _91
REMARK   30  A    between atoms: _91  and  _92
REMARK   31  A    between atoms: _91  and  _94
REMARK   32  A    between atoms: _100  and  _101
REMARK   33  A    between atoms: _101  and  _102
REMARK   34  A    between atoms: _101  and  _104
REMARK   35  A    between atoms: _104  and  _105
REMARK                            x       y       z     vdW  Elec       q    Type
REMARK                         _______ _______ _______ _____ _____    ______ ____
ROOT
ATOM      1  CA  GLN A   4       6.202   1.623  20.965  0.00  0.00    +0.159 C 
ENDROOT
BRANCH   1   3
ATOM      2  C   LEU A   3       7.508  -0.492  21.135  0.00  0.00    +0.234 C 
ATOM      3  N   GLN A   4       6.691   0.456  21.700  0.00  0.00    -0.302 N 
ATOM      4  H   GLN A   4       6.345   0.340  22.650  0.00  0.00    +0.150 HD
ATOM      5  O   LEU A   3       7.902  -0.422  19.971  0.00  0.00    -0.274 OA
BRANCH   2   6
ATOM      6  CA  LEU A   3       7.924  -1.639  22.079  0.00  0.00    +0.159 C 
BRANCH   6   9
ATOM      7  C   THR A   2       9.375  -1.201  24.056  0.00  0.00    +0.236 C 
ATOM      8  O   THR A   2      10.285  -1.920  23.644  0.00  0.00    -0.274 OA
ATOM      9  N   LEU A   3       8.187  -1.041  23.384  0.00  0.00    -0.302 N 
ATOM     10  H   LEU A   3       7.510  -0.355  23.706  0.00  0.00    +0.150 HD
BRANCH   7  11
ATOM     11  CA  THR A   2       9.504  -0.392  25.354  0.00  0.00    +0.187 C 
BRANCH  11  13
ATOM     12  C   ALA A   1      10.154   1.806  24.393  0.00  0.00    +0.230 C 
ATOM     13  N   THR A   2       9.219   0.999  24.995  0.00  0.00    -0.301 N 
ATOM     14  H   THR A   2       8.339   1.386  25.318  0.00  0.00    +0.150 HD
ATOM     15  O   ALA A   1      11.240   1.400  23.984  0.00  0.00    -0.274 OA
BRANCH  12  16
ATOM     16  CA  ALA A   1       9.712   3.274  24.232  0.00  0.00    +0.135 C 
ATOM     17  CB  ALA A   1       8.514   3.555  25.130  0.00  0.00    +0.033 C 
BRANCH  16  18
ATOM     18  N   ALA A   1       9.365   3.542  22.823  0.00  0.00    -0.320 NA
ATOM     19  H1  ALA A   1      10.131   3.170  22.252  0.00  0.00    +0.119 HD
ATOM     20  H2  ALA A   1       9.435   4.552  22.674  0.00  0.00    +0.119 HD
ENDBRANCH  16  18
ENDBRANCH  12  16
ENDBRANCH  11  13
BRANCH  11  21
ATOM     21  CB  THR A   2       8.489  -0.928  26.392  0.00  0.00    +0.141 C 
ATOM     22  CG2 THR A   2       8.484  -2.451  26.474  0.00  0.00    +0.040 C 
BRANCH  21  23
ATOM     23  OG1 THR A   2       8.798  -0.417  27.696  0.00  0.00    -0.390 OA
ATOM     24  HG1 THR A   2       8.005   0.025  28.043  0.00  0.00    +0.210 HD
ENDBRANCH  21  23
ENDBRANCH  11  21
ENDBRANCH   7  11
ENDBRANCH   6   9
BRANCH   6  25
ATOM     25  CB  LEU A   3       6.797  -2.682  22.151  0.00  0.00    +0.034 C 
BRANCH  25  26
ATOM     26  CG  LEU A   3       7.264  -4.151  22.107  0.00  0.00    -0.015 C 
ATOM     27  CD2 LEU A   3       7.771  -4.572  23.490  0.00  0.00    +0.007 C 
ATOM     28  CD1 LEU A   3       6.149  -5.099  21.662  0.00  0.00    +0.007 C 
ENDBRANCH  25  26
ENDBRANCH   6  25
ENDBRANCH   2   6
ENDBRANCH   1   3
BRANCH   1  29
ATOM     29  C   GLN A   4       5.932   2.713  22.020  0.00  0.00    +0.234 C 
ATOM     30  O   GLN A   4       6.429   3.836  21.933  0.00  0.00    -0.274 OA
ATOM     31  N   ALA A   5       5.159   2.321  23.082  0.00  0.00    -0.303 N 
ATOM     32  H   ALA A   5       4.713   1.406  23.098  0.00  0.00    +0.149 HD
BRANCH  31  33
ATOM     33  CA  ALA A   5       4.924   3.171  24.242  0.00  0.00    +0.156 C 
ATOM     34  CB  ALA A   5       3.561   3.845  24.188  0.00  0.00    +0.038 C 
BRANCH  33  35
ATOM     35  C   ALA A   5       5.024   2.277  25.487  0.00  0.00    +0.234 C 
ATOM     36  N   ILE A   6       3.889   2.228  26.256  0.00  0.00    -0.302 N 
ATOM     37  H   ILE A   6       3.040   2.700  25.952  0.00  0.00    +0.150 HD
ATOM     38  O   ALA A   5       6.053   1.660  25.762  0.00  0.00    -0.274 OA
BRANCH  36  39
ATOM     39  CA  ILE A   6       3.787   1.453  27.495  0.00  0.00    +0.162 C 
BRANCH  39  40
ATOM     40  C   ILE A   6       3.299   0.061  27.030  0.00  0.00    +0.234 C 
ATOM     41  O   ILE A   6       2.101  -0.199  26.905  0.00  0.00    -0.274 OA
ATOM     42  N   ALA A   7       4.283  -0.867  26.802  0.00  0.00    -0.303 N 
ATOM     43  H   ALA A   7       5.259  -0.637  26.970  0.00  0.00    +0.149 HD
BRANCH  42  44
ATOM     44  CA  ALA A   7       3.988  -2.262  26.499  0.00  0.00    +0.156 C 
ATOM     45  CB  ALA A   7       4.675  -2.701  25.213  0.00  0.00    +0.038 C 
BRANCH  44  46
ATOM     46  C   ALA A   7       4.455  -3.110  27.696  0.00  0.00    +0.234 C 
ATOM     47  N   SER A   8       5.067  -4.296  27.374  0.00  0.00    -0.302 N 
ATOM     48  H   SER A   8       5.353  -4.477  26.414  0.00  0.00    +0.150 HD
ATOM     49  O   ALA A   7       4.283  -2.754  28.863  0.00  0.00    -0.274 OA
BRANCH  47  50
ATOM     50  CA  SER A   8       5.676  -5.151  28.394  0.00  0.00    +0.161 C 
BRANCH  50  51
ATOM     51  C   SER A   8       6.981  -5.695  27.832  0.00  0.00    +0.247 C 
ATOM     52  O   SER A   8       7.169  -5.870  26.628  0.00  0.00    -0.299 OA
ENDBRANCH  50  51
BRANCH  50  53
ATOM     53  CB  SER A   8       4.771  -6.312  28.813  0.00  0.00    +0.185 C 
BRANCH  53  54
ATOM     54  OG  SER A   8       5.345  -7.567  28.449  0.00  0.00    -0.393 OA
ATOM     55  H   SER A   8       4.958  -8.233  29.047  0.00  0.00    +0.209 HD
ENDBRANCH  53  54
ENDBRANCH  50  53
ENDBRANCH  47  50
ENDBRANCH  44  46
ENDBRANCH  42  44
ENDBRANCH  39  40
BRANCH  39  56
ATOM     56  CB  ILE A   6       2.795   2.096  28.511  0.00  0.00    +0.015 C 
ATOM     57  CG2 ILE A   6       2.967   1.498  29.916  0.00  0.00    +0.010 C 
BRANCH  56  58
ATOM     58  CG1 ILE A   6       2.940   3.637  28.555  0.00  0.00    +0.002 C 
ATOM     59  CD1 ILE A   6       4.178   4.139  29.287  0.00  0.00    +0.004 C 
ENDBRANCH  56  58
ENDBRANCH  39  56
ENDBRANCH  36  39
ENDBRANCH  33  35
ENDBRANCH  31  33
ENDBRANCH   1  29
BRANCH   1  60
ATOM     60  CB  GLN A   4       4.921   1.273  20.193  0.00  0.00    +0.041 C 
BRANCH  60  61
ATOM     61  CG  GLN A   4       4.947   1.703  18.726  0.00  0.00    +0.098 C 
BRANCH  61  62
ATOM     62  CD  GLN A   4       5.873   0.865  17.870  0.00  0.00    +0.211 C 
ATOM     63  OE1 GLN A   4       6.733   1.357  17.148  0.00  0.00    -0.276 OA
ATOM     64  NE2 GLN A   4       5.656  -0.478  17.871  0.00  0.00    -0.329 N 
ATOM     65 HE21 GLN A   4       4.978  -0.944  18.454  0.00  0.00    +0.145 HD
ATOM     66 HE22 GLN A   4       6.269  -1.045  17.298  0.00  0.00    +0.145 HD
ENDBRANCH  61  62
ENDBRANCH  60  61
ENDBRANCH   1  60
TORSDOF 27
ENDMDL
MODEL 15
REMARK VINA RESULT:      -6.1      1.996      7.043
REMARK  Name = ATLQAIAS-mmff94.pdb
REMARK  35 active torsions:
REMARK  status: ('A' for Active; 'I' for Inactive)
REMARK    1  A    between atoms: _1  and  _2
REMARK    2  A    between atoms: _2  and  _3
REMARK    3  A    between atoms: _2  and  _5
REMARK    4  A    between atoms: _11  and  _12
REMARK    5  A    between atoms: _12  and  _13
REMARK    6  A    between atoms: _12  and  _15
REMARK    7  A    between atoms: _15  and  _16
REMARK    8  A    between atoms: _15  and  _17
REMARK    9  A    between atoms: _25  and  _26
REMARK   10  A    between atoms: _26  and  _27
REMARK   11  A    between atoms: _26  and  _29
REMARK   12  A    between atoms: _29  and  _30
REMARK   13  A    between atoms: _30  and  _31
REMARK   14  A    between atoms: _30  and  _32
REMARK   15  A    between atoms: _44  and  _45
REMARK   16  A    between atoms: _45  and  _46
REMARK   17  A    between atoms: _45  and  _48
REMARK   18  A    between atoms: _48  and  _49
REMARK   19  A    between atoms: _49  and  _50
REMARK   20  A    between atoms: _61  and  _62
REMARK   21  A    between atoms: _62  and  _63
REMARK   22  A    between atoms: _62  and  _65
REMARK   23  A    between atoms: _71  and  _72
REMARK   24  A    between atoms: _72  and  _73
REMARK   25  A    between atoms: _72  and  _75
REMARK   26  A    between atoms: _75  and  _76
REMARK   27  A    between atoms: _75  and  _77
REMARK   28  A    between atoms: _76  and  _78
REMARK   29  A    between atoms: _90  and  _91
REMARK   30  A    between atoms: _91  and  _92
REMARK   31  A    between atoms: _91  and  _94
REMARK   32  A    between atoms: _100  and  _101
REMARK   33  A    between atoms: _101  and  _102
REMARK   34  A    between atoms: _101  and  _104
REMARK   35  A    between atoms: _104  and  _105
REMARK                            x       y       z     vdW  Elec       q    Type
REMARK                         _______ _______ _______ _____ _____    ______ ____
ROOT
ATOM      1  CA  GLN A   4       8.468  -1.493  26.212  0.00  0.00    +0.159 C 
ENDROOT
BRANCH   1   3
ATOM      2  C   LEU A   3       8.432  -3.983  26.133  0.00  0.00    +0.234 C 
ATOM      3  N   GLN A   4       7.927  -2.768  25.740  0.00  0.00    -0.302 N 
ATOM      4  H   GLN A   4       7.184  -2.717  25.046  0.00  0.00    +0.150 HD
ATOM      5  O   LEU A   3       9.368  -4.089  26.925  0.00  0.00    -0.274 OA
BRANCH   2   6
ATOM      6  CA  LEU A   3       7.714  -5.211  25.534  0.00  0.00    +0.159 C 
BRANCH   6   9
ATOM      7  C   THR A   2       6.166  -5.679  27.428  0.00  0.00    +0.236 C 
ATOM      8  O   THR A   2       7.062  -6.108  28.155  0.00  0.00    -0.274 OA
ATOM      9  N   LEU A   3       6.387  -5.263  26.137  0.00  0.00    -0.302 N 
ATOM     10  H   LEU A   3       5.639  -4.817  25.612  0.00  0.00    +0.150 HD
BRANCH   7  11
ATOM     11  CA  THR A   2       4.718  -5.545  27.918  0.00  0.00    +0.187 C 
BRANCH  11  13
ATOM     12  C   ALA A   1       3.561  -3.355  27.714  0.00  0.00    +0.230 C 
ATOM     13  N   THR A   2       4.121  -4.465  27.129  0.00  0.00    -0.301 N 
ATOM     14  H   THR A   2       4.027  -4.621  26.132  0.00  0.00    +0.150 HD
ATOM     15  O   ALA A   1       3.635  -3.111  28.916  0.00  0.00    -0.274 OA
BRANCH  12  16
ATOM     16  CA  ALA A   1       2.856  -2.407  26.724  0.00  0.00    +0.135 C 
ATOM     17  CB  ALA A   1       1.725  -3.144  26.017  0.00  0.00    +0.033 C 
BRANCH  16  18
ATOM     18  N   ALA A   1       3.827  -1.900  25.736  0.00  0.00    -0.320 NA
ATOM     19  H1  ALA A   1       4.454  -2.679  25.509  0.00  0.00    +0.119 HD
ATOM     20  H2  ALA A   1       4.442  -1.240  26.218  0.00  0.00    +0.119 HD
ENDBRANCH  16  18
ENDBRANCH  12  16
ENDBRANCH  11  13
BRANCH  11  21
ATOM     21  CB  THR A   2       3.977  -6.886  27.693  0.00  0.00    +0.141 C 
ATOM     22  CG2 THR A   2       2.503  -6.813  28.078  0.00  0.00    +0.040 C 
BRANCH  21  23
ATOM     23  OG1 THR A   2       4.054  -7.269  26.313  0.00  0.00    -0.390 OA
ATOM     24  HG1 THR A   2       4.795  -7.889  26.213  0.00  0.00    +0.210 HD
ENDBRANCH  21  23
ENDBRANCH  11  21
ENDBRANCH   7  11
ENDBRANCH   6   9
BRANCH   6  25
ATOM     25  CB  LEU A   3       7.638  -5.066  24.005  0.00  0.00    +0.034 C 
BRANCH  25  26
ATOM     26  CG  LEU A   3       6.268  -5.410  23.386  0.00  0.00    -0.015 C 
ATOM     27  CD2 LEU A   3       5.513  -4.119  23.054  0.00  0.00    +0.007 C 
ATOM     28  CD1 LEU A   3       6.403  -6.260  22.121  0.00  0.00    +0.007 C 
ENDBRANCH  25  26
ENDBRANCH   6  25
ENDBRANCH   2   6
ENDBRANCH   1   3
BRANCH   1  29
ATOM     29  C   GLN A   4       7.283  -0.724  26.827  0.00  0.00    +0.234 C 
ATOM     30  O   GLN A   4       6.309  -1.308  27.301  0.00  0.00    -0.274 OA
ATOM     31  N   ALA A   5       7.368   0.642  26.748  0.00  0.00    -0.303 N 
ATOM     32  H   ALA A   5       8.211   1.097  26.405  0.00  0.00    +0.149 HD
BRANCH  31  33
ATOM     33  CA  ALA A   5       6.276   1.523  27.143  0.00  0.00    +0.156 C 
ATOM     34  CB  ALA A   5       6.784   2.823  27.749  0.00  0.00    +0.038 C 
BRANCH  33  35
ATOM     35  C   ALA A   5       5.450   1.814  25.881  0.00  0.00    +0.234 C 
ATOM     36  N   ILE A   6       5.858   2.910  25.163  0.00  0.00    -0.302 N 
ATOM     37  H   ILE A   6       6.695   3.420  25.435  0.00  0.00    +0.150 HD
ATOM     38  O   ALA A   5       4.495   1.110  25.553  0.00  0.00    -0.274 OA
BRANCH  36  39
ATOM     39  CA  ILE A   6       5.189   3.370  23.944  0.00  0.00    +0.162 C 
BRANCH  39  40
ATOM     40  C   ILE A   6       6.325   3.445  22.897  0.00  0.00    +0.234 C 
ATOM     41  O   ILE A   6       6.674   4.513  22.391  0.00  0.00    -0.274 OA
ATOM     42  N   ALA A   7       6.890   2.244  22.548  0.00  0.00    -0.303 N 
ATOM     43  H   ALA A   7       6.540   1.375  22.941  0.00  0.00    +0.149 HD
BRANCH  42  44
ATOM     44  CA  ALA A   7       7.869   2.123  21.474  0.00  0.00    +0.156 C 
ATOM     45  CB  ALA A   7       9.255   1.822  22.029  0.00  0.00    +0.038 C 
BRANCH  44  46
ATOM     46  C   ALA A   7       7.393   1.004  20.531  0.00  0.00    +0.234 C 
ATOM     47  N   SER A   8       6.039   0.956  20.310  0.00  0.00    -0.302 N 
ATOM     48  H   SER A   8       5.448   1.733  20.601  0.00  0.00    +0.150 HD
ATOM     49  O   ALA A   7       8.172   0.199  20.016  0.00  0.00    -0.274 OA
BRANCH  47  50
ATOM     50  CA  SER A   8       5.448   0.030  19.343  0.00  0.00    +0.161 C 
BRANCH  50  51
ATOM     51  C   SER A   8       5.856  -1.382  19.735  0.00  0.00    +0.247 C 
ATOM     52  O   SER A   8       5.442  -2.384  19.152  0.00  0.00    -0.299 OA
ENDBRANCH  50  51
BRANCH  50  53
ATOM     53  CB  SER A   8       5.889   0.314  17.904  0.00  0.00    +0.185 C 
BRANCH  53  54
ATOM     54  OG  SER A   8       5.593   1.660  17.533  0.00  0.00    -0.393 OA
ATOM     55  H   SER A   8       4.666   1.822  17.793  0.00  0.00    +0.209 HD
ENDBRANCH  53  54
ENDBRANCH  50  53
ENDBRANCH  47  50
ENDBRANCH  44  46
ENDBRANCH  42  44
ENDBRANCH  39  40
BRANCH  39  56
ATOM     56  CB  ILE A   6       4.499   4.754  24.137  0.00  0.00    +0.015 C 
ATOM     57  CG2 ILE A   6       2.969   4.621  24.140  0.00  0.00    +0.010 C 
BRANCH  56  58
ATOM     58  CG1 ILE A   6       4.986   5.461  25.427  0.00  0.00    +0.002 C 
ATOM     59  CD1 ILE A   6       3.983   5.451  26.574  0.00  0.00    +0.004 C 
ENDBRANCH  56  58
ENDBRANCH  39  56
ENDBRANCH  36  39
ENDBRANCH  33  35
ENDBRANCH  31  33
ENDBRANCH   1  29
BRANCH   1  60
ATOM     60  CB  GLN A   4       9.089  -0.708  25.046  0.00  0.00    +0.041 C 
BRANCH  60  61
ATOM     61  CG  GLN A   4       9.881  -1.577  24.069  0.00  0.00    +0.098 C 
BRANCH  61  62
ATOM     62  CD  GLN A   4       9.241  -1.683  22.701  0.00  0.00    +0.211 C 
ATOM     63  OE1 GLN A   4       8.058  -1.963  22.544  0.00  0.00    -0.276 OA
ATOM     64  NE2 GLN A   4      10.063  -1.531  21.628  0.00  0.00    -0.329 N 
ATOM     65 HE21 GLN A   4      11.039  -1.282  21.691  0.00  0.00    +0.145 HD
ATOM     66 HE22 GLN A   4       9.643  -1.604  20.710  0.00  0.00    +0.145 HD
ENDBRANCH  61  62
ENDBRANCH  60  61
ENDBRANCH   1  60
TORSDOF 27
ENDMDL
MODEL 16
REMARK VINA RESULT:      -6.1      2.263      6.969
REMARK  Name = ATLQAIAS-mmff94.pdb
REMARK  35 active torsions:
REMARK  status: ('A' for Active; 'I' for Inactive)
REMARK    1  A    between atoms: _1  and  _2
REMARK    2  A    between atoms: _2  and  _3
REMARK    3  A    between atoms: _2  and  _5
REMARK    4  A    between atoms: _11  and  _12
REMARK    5  A    between atoms: _12  and  _13
REMARK    6  A    between atoms: _12  and  _15
REMARK    7  A    between atoms: _15  and  _16
REMARK    8  A    between atoms: _15  and  _17
REMARK    9  A    between atoms: _25  and  _26
REMARK   10  A    between atoms: _26  and  _27
REMARK   11  A    between atoms: _26  and  _29
REMARK   12  A    between atoms: _29  and  _30
REMARK   13  A    between atoms: _30  and  _31
REMARK   14  A    between atoms: _30  and  _32
REMARK   15  A    between atoms: _44  and  _45
REMARK   16  A    between atoms: _45  and  _46
REMARK   17  A    between atoms: _45  and  _48
REMARK   18  A    between atoms: _48  and  _49
REMARK   19  A    between atoms: _49  and  _50
REMARK   20  A    between atoms: _61  and  _62
REMARK   21  A    between atoms: _62  and  _63
REMARK   22  A    between atoms: _62  and  _65
REMARK   23  A    between atoms: _71  and  _72
REMARK   24  A    between atoms: _72  and  _73
REMARK   25  A    between atoms: _72  and  _75
REMARK   26  A    between atoms: _75  and  _76
REMARK   27  A    between atoms: _75  and  _77
REMARK   28  A    between atoms: _76  and  _78
REMARK   29  A    between atoms: _90  and  _91
REMARK   30  A    between atoms: _91  and  _92
REMARK   31  A    between atoms: _91  and  _94
REMARK   32  A    between atoms: _100  and  _101
REMARK   33  A    between atoms: _101  and  _102
REMARK   34  A    between atoms: _101  and  _104
REMARK   35  A    between atoms: _104  and  _105
REMARK                            x       y       z     vdW  Elec       q    Type
REMARK                         _______ _______ _______ _____ _____    ______ ____
ROOT
ATOM      1  CA  GLN A   4       7.346  -2.095  22.627  0.00  0.00    +0.159 C 
ENDROOT
BRANCH   1   3
ATOM      2  C   LEU A   3       6.316  -0.528  24.267  0.00  0.00    +0.234 C 
ATOM      3  N   GLN A   4       6.469  -1.794  23.759  0.00  0.00    -0.302 N 
ATOM      4  H   GLN A   4       6.015  -2.588  24.204  0.00  0.00    +0.150 HD
ATOM      5  O   LEU A   3       6.893   0.452  23.796  0.00  0.00    -0.274 OA
BRANCH   2   6
ATOM      6  CA  LEU A   3       5.337  -0.417  25.455  0.00  0.00    +0.159 C 
BRANCH   6   9
ATOM      7  C   THR A   2       4.328  -2.545  26.266  0.00  0.00    +0.236 C 
ATOM      8  O   THR A   2       3.215  -2.281  25.810  0.00  0.00    -0.274 OA
ATOM      9  N   LEU A   3       5.396  -1.686  26.173  0.00  0.00    -0.302 N 
ATOM     10  H   LEU A   3       6.320  -1.990  26.466  0.00  0.00    +0.150 HD
BRANCH   7  11
ATOM     11  CA  THR A   2       4.625  -3.883  26.956  0.00  0.00    +0.187 C 
BRANCH  11  13
ATOM     12  C   ALA A   1       6.700  -5.205  26.603  0.00  0.00    +0.230 C 
ATOM     13  N   THR A   2       6.082  -4.027  26.951  0.00  0.00    -0.301 N 
ATOM     14  H   THR A   2       6.623  -3.258  27.331  0.00  0.00    +0.150 HD
ATOM     15  O   ALA A   1       6.102  -6.175  26.143  0.00  0.00    -0.274 OA
BRANCH  12  16
ATOM     16  CA  ALA A   1       8.229  -5.200  26.804  0.00  0.00    +0.135 C 
ATOM     17  CB  ALA A   1       8.779  -3.802  26.552  0.00  0.00    +0.033 C 
BRANCH  16  18
ATOM     18  N   ALA A   1       8.858  -6.167  25.884  0.00  0.00    -0.320 NA
ATOM     19  H1  ALA A   1       9.634  -5.679  25.425  0.00  0.00    +0.119 HD
ATOM     20  H2  ALA A   1       8.204  -6.335  25.117  0.00  0.00    +0.119 HD
ENDBRANCH  16  18
ENDBRANCH  12  16
ENDBRANCH  11  13
BRANCH  11  21
ATOM     21  CB  THR A   2       4.066  -3.848  28.399  0.00  0.00    +0.141 C 
ATOM     22  CG2 THR A   2       4.927  -4.635  29.381  0.00  0.00    +0.040 C 
BRANCH  21  23
ATOM     23  OG1 THR A   2       3.988  -2.494  28.867  0.00  0.00    -0.390 OA
ATOM     24  HG1 THR A   2       4.116  -2.500  29.830  0.00  0.00    +0.210 HD
ENDBRANCH  21  23
ENDBRANCH  11  21
ENDBRANCH   7  11
ENDBRANCH   6   9
BRANCH   6  25
ATOM     25  CB  LEU A   3       5.747   0.763  26.351  0.00  0.00    +0.034 C 
BRANCH  25  26
ATOM     26  CG  LEU A   3       5.694   0.479  27.866  0.00  0.00    -0.015 C 
ATOM     27  CD2 LEU A   3       6.911   1.107  28.551  0.00  0.00    +0.007 C 
ATOM     28  CD1 LEU A   3       4.414   1.015  28.510  0.00  0.00    +0.007 C 
ENDBRANCH  25  26
ENDBRANCH   6  25
ENDBRANCH   2   6
ENDBRANCH   1   3
BRANCH   1  29
ATOM     29  C   GLN A   4       6.658  -1.501  21.382  0.00  0.00    +0.234 C 
ATOM     30  O   GLN A   4       5.727  -2.076  20.820  0.00  0.00    -0.274 OA
ATOM     31  N   ALA A   5       7.200  -0.330  20.918  0.00  0.00    -0.303 N 
ATOM     32  H   ALA A   5       7.930   0.153  21.437  0.00  0.00    +0.149 HD
BRANCH  31  33
ATOM     33  CA  ALA A   5       6.775   0.294  19.672  0.00  0.00    +0.156 C 
ATOM     34  CB  ALA A   5       5.976  -0.662  18.798  0.00  0.00    +0.038 C 
BRANCH  33  35
ATOM     35  C   ALA A   5       5.916   1.512  20.045  0.00  0.00    +0.234 C 
ATOM     36  N   ILE A   6       6.333   2.192  21.162  0.00  0.00    -0.302 N 
ATOM     37  H   ILE A   6       7.194   1.926  21.636  0.00  0.00    +0.150 HD
ATOM     38  O   ALA A   5       4.931   1.839  19.385  0.00  0.00    -0.274 OA
BRANCH  36  39
ATOM     39  CA  ILE A   6       5.639   3.365  21.699  0.00  0.00    +0.162 C 
BRANCH  39  40
ATOM     40  C   ILE A   6       6.750   4.164  22.419  0.00  0.00    +0.234 C 
ATOM     41  O   ILE A   6       6.794   5.394  22.382  0.00  0.00    -0.274 OA
ATOM     42  N   ALA A   7       7.697   3.411  23.066  0.00  0.00    -0.303 N 
ATOM     43  H   ALA A   7       7.665   2.396  23.028  0.00  0.00    +0.149 HD
BRANCH  42  44
ATOM     44  CA  ALA A   7       8.887   4.000  23.669  0.00  0.00    +0.156 C 
ATOM     45  CB  ALA A   7       8.585   4.540  25.060  0.00  0.00    +0.038 C 
BRANCH  44  46
ATOM     46  C   ALA A   7       9.974   2.912  23.719  0.00  0.00    +0.234 C 
ATOM     47  N   SER A   8       9.525   1.643  23.988  0.00  0.00    -0.302 N 
ATOM     48  H   SER A   8       8.528   1.438  23.953  0.00  0.00    +0.150 HD
ATOM     49  O   ALA A   7      11.167   3.163  23.541  0.00  0.00    -0.274 OA
BRANCH  47  50
ATOM     50  CA  SER A   8      10.418   0.484  23.946  0.00  0.00    +0.161 C 
BRANCH  50  51
ATOM     51  C   SER A   8      10.344  -0.114  22.549  0.00  0.00    +0.247 C 
ATOM     52  O   SER A   8       9.816   0.466  21.600  0.00  0.00    -0.299 OA
ENDBRANCH  50  51
BRANCH  50  53
ATOM     53  CB  SER A   8      10.056  -0.582  24.984  0.00  0.00    +0.185 C 
BRANCH  53  54
ATOM     54  OG  SER A   8       9.222  -0.039  26.007  0.00  0.00    -0.393 OA
ATOM     55  H   SER A   8       9.263   0.931  25.913  0.00  0.00    +0.209 HD
ENDBRANCH  53  54
ENDBRANCH  50  53
ENDBRANCH  47  50
ENDBRANCH  44  46
ENDBRANCH  42  44
ENDBRANCH  39  40
BRANCH  39  56
ATOM     56  CB  ILE A   6       4.491   2.974  22.678  0.00  0.00    +0.015 C 
ATOM     57  CG2 ILE A   6       4.792   3.446  24.109  0.00  0.00    +0.010 C 
BRANCH  56  58
ATOM     58  CG1 ILE A   6       3.122   3.519  22.202  0.00  0.00    +0.002 C 
ATOM     59  CD1 ILE A   6       1.971   3.279  23.171  0.00  0.00    +0.004 C 
ENDBRANCH  56  58
ENDBRANCH  39  56
ENDBRANCH  36  39
ENDBRANCH  33  35
ENDBRANCH  31  33
ENDBRANCH   1  29
BRANCH   1  60
ATOM     60  CB  GLN A   4       7.535  -3.613  22.481  0.00  0.00    +0.041 C 
BRANCH  60  61
ATOM     61  CG  GLN A   4       6.504  -4.440  23.248  0.00  0.00    +0.098 C 
BRANCH  61  62
ATOM     62  CD  GLN A   4       5.832  -5.500  22.402  0.00  0.00    +0.211 C 
ATOM     63  OE1 GLN A   4       5.766  -5.427  21.180  0.00  0.00    -0.276 OA
ATOM     64  NE2 GLN A   4       5.221  -6.517  23.067  0.00  0.00    -0.329 N 
ATOM     65 HE21 GLN A   4       5.255  -6.642  24.068  0.00  0.00    +0.145 HD
ATOM     66 HE22 GLN A   4       4.766  -7.227  22.508  0.00  0.00    +0.145 HD
ENDBRANCH  61  62
ENDBRANCH  60  61
ENDBRANCH   1  60
TORSDOF 27
ENDMDL
MODEL 17
REMARK VINA RESULT:      -6.1      1.857      6.770
REMARK  Name = ATLQAIAS-mmff94.pdb
REMARK  35 active torsions:
REMARK  status: ('A' for Active; 'I' for Inactive)
REMARK    1  A    between atoms: _1  and  _2
REMARK    2  A    between atoms: _2  and  _3
REMARK    3  A    between atoms: _2  and  _5
REMARK    4  A    between atoms: _11  and  _12
REMARK    5  A    between atoms: _12  and  _13
REMARK    6  A    between atoms: _12  and  _15
REMARK    7  A    between atoms: _15  and  _16
REMARK    8  A    between atoms: _15  and  _17
REMARK    9  A    between atoms: _25  and  _26
REMARK   10  A    between atoms: _26  and  _27
REMARK   11  A    between atoms: _26  and  _29
REMARK   12  A    between atoms: _29  and  _30
REMARK   13  A    between atoms: _30  and  _31
REMARK   14  A    between atoms: _30  and  _32
REMARK   15  A    between atoms: _44  and  _45
REMARK   16  A    between atoms: _45  and  _46
REMARK   17  A    between atoms: _45  and  _48
REMARK   18  A    between atoms: _48  and  _49
REMARK   19  A    between atoms: _49  and  _50
REMARK   20  A    between atoms: _61  and  _62
REMARK   21  A    between atoms: _62  and  _63
REMARK   22  A    between atoms: _62  and  _65
REMARK   23  A    between atoms: _71  and  _72
REMARK   24  A    between atoms: _72  and  _73
REMARK   25  A    between atoms: _72  and  _75
REMARK   26  A    between atoms: _75  and  _76
REMARK   27  A    between atoms: _75  and  _77
REMARK   28  A    between atoms: _76  and  _78
REMARK   29  A    between atoms: _90  and  _91
REMARK   30  A    between atoms: _91  and  _92
REMARK   31  A    between atoms: _91  and  _94
REMARK   32  A    between atoms: _100  and  _101
REMARK   33  A    between atoms: _101  and  _102
REMARK   34  A    between atoms: _101  and  _104
REMARK   35  A    between atoms: _104  and  _105
REMARK                            x       y       z     vdW  Elec       q    Type
REMARK                         _______ _______ _______ _____ _____    ______ ____
ROOT
ATOM      1  CA  GLN A   4       3.851  -3.145  27.681  0.00  0.00    +0.159 C 
ENDROOT
BRANCH   1   3
ATOM      2  C   LEU A   3       3.670  -3.452  25.216  0.00  0.00    +0.234 C 
ATOM      3  N   GLN A   4       4.406  -3.499  26.375  0.00  0.00    -0.302 N 
ATOM      4  H   GLN A   4       5.361  -3.848  26.366  0.00  0.00    +0.150 HD
ATOM      5  O   LEU A   3       2.494  -3.092  25.189  0.00  0.00    -0.274 OA
BRANCH   2   6
ATOM      6  CA  LEU A   3       4.440  -3.852  23.940  0.00  0.00    +0.159 C 
BRANCH   6   9
ATOM      7  C   THR A   2       6.821  -4.535  23.676  0.00  0.00    +0.236 C 
ATOM      8  O   THR A   2       6.550  -5.463  22.914  0.00  0.00    -0.274 OA
ATOM      9  N   LEU A   3       5.862  -3.734  24.247  0.00  0.00    -0.302 N 
ATOM     10  H   LEU A   3       6.137  -2.915  24.782  0.00  0.00    +0.150 HD
BRANCH   7  11
ATOM     11  CA  THR A   2       8.270  -4.173  24.032  0.00  0.00    +0.187 C 
BRANCH  11  13
ATOM     12  C   ALA A   1       9.504  -2.061  23.595  0.00  0.00    +0.230 C 
ATOM     13  N   THR A   2       8.352  -2.713  23.964  0.00  0.00    -0.301 N 
ATOM     14  H   THR A   2       7.558  -2.190  24.317  0.00  0.00    +0.150 HD
ATOM     15  O   ALA A   1      10.501  -2.636  23.164  0.00  0.00    -0.274 OA
BRANCH  12  16
ATOM     16  CA  ALA A   1       9.432  -0.527  23.728  0.00  0.00    +0.135 C 
ATOM     17  CB  ALA A   1      10.389  -0.058  24.817  0.00  0.00    +0.033 C 
BRANCH  16  18
ATOM     18  N   ALA A   1       8.053  -0.115  24.052  0.00  0.00    -0.320 NA
ATOM     19  H1  ALA A   1       7.463  -0.947  23.949  0.00  0.00    +0.119 HD
ATOM     20  H2  ALA A   1       7.728   0.494  23.297  0.00  0.00    +0.119 HD
ENDBRANCH  16  18
ENDBRANCH  12  16
ENDBRANCH  11  13
BRANCH  11  21
ATOM     21  CB  THR A   2       8.589  -4.692  25.455  0.00  0.00    +0.141 C 
ATOM     22  CG2 THR A   2       8.575  -3.582  26.501  0.00  0.00    +0.040 C 
BRANCH  21  23
ATOM     23  OG1 THR A   2       7.629  -5.682  25.849  0.00  0.00    -0.390 OA
ATOM     24  HG1 THR A   2       7.072  -5.301  26.548  0.00  0.00    +0.210 HD
ENDBRANCH  21  23
ENDBRANCH  11  21
ENDBRANCH   7  11
ENDBRANCH   6   9
BRANCH   6  25
ATOM     25  CB  LEU A   3       4.063  -5.288  23.540  0.00  0.00    +0.034 C 
BRANCH  25  26
ATOM     26  CG  LEU A   3       3.375  -6.112  24.646  0.00  0.00    -0.015 C 
ATOM     27  CD2 LEU A   3       2.102  -6.759  24.091  0.00  0.00    +0.007 C 
ATOM     28  CD1 LEU A   3       4.291  -7.198  25.214  0.00  0.00    +0.007 C 
ENDBRANCH  25  26
ENDBRANCH   6  25
ENDBRANCH   2   6
ENDBRANCH   1   3
BRANCH   1  29
ATOM     29  C   GLN A   4       4.112  -1.637  27.864  0.00  0.00    +0.234 C 
ATOM     30  O   GLN A   4       3.274  -0.892  28.372  0.00  0.00    -0.274 OA
ATOM     31  N   ALA A   5       5.306  -1.185  27.365  0.00  0.00    -0.303 N 
ATOM     32  H   ALA A   5       6.004  -1.833  27.005  0.00  0.00    +0.149 HD
BRANCH  31  33
ATOM     33  CA  ALA A   5       5.655   0.229  27.317  0.00  0.00    +0.156 C 
ATOM     34  CB  ALA A   5       7.156   0.450  27.425  0.00  0.00    +0.038 C 
BRANCH  33  35
ATOM     35  C   ALA A   5       5.135   0.778  25.979  0.00  0.00    +0.234 C 
ATOM     36  N   ILE A   6       4.679   2.072  26.024  0.00  0.00    -0.302 N 
ATOM     37  H   ILE A   6       4.767   2.620  26.877  0.00  0.00    +0.150 HD
ATOM     38  O   ALA A   5       5.130   0.096  24.955  0.00  0.00    -0.274 OA
BRANCH  36  39
ATOM     39  CA  ILE A   6       4.121   2.772  24.864  0.00  0.00    +0.162 C 
BRANCH  39  40
ATOM     40  C   ILE A   6       5.354   3.404  24.177  0.00  0.00    +0.234 C 
ATOM     41  O   ILE A   6       5.615   4.603  24.287  0.00  0.00    -0.274 OA
ATOM     42  N   ALA A   7       6.111   2.551  23.414  0.00  0.00    -0.303 N 
ATOM     43  H   ALA A   7       5.835   1.580  23.297  0.00  0.00    +0.149 HD
BRANCH  42  44
ATOM     44  CA  ALA A   7       7.218   3.015  22.587  0.00  0.00    +0.156 C 
ATOM     45  CB  ALA A   7       8.384   3.485  23.446  0.00  0.00    +0.038 C 
BRANCH  44  46
ATOM     46  C   ALA A   7       7.638   1.852  21.670  0.00  0.00    +0.234 C 
ATOM     47  N   SER A   8       6.630   0.990  21.314  0.00  0.00    -0.302 N 
ATOM     48  H   SER A   8       5.659   1.240  21.493  0.00  0.00    +0.150 HD
ATOM     49  O   ALA A   7       8.799   1.697  21.291  0.00  0.00    -0.274 OA
BRANCH  47  50
ATOM     50  CA  SER A   8       6.844  -0.090  20.350  0.00  0.00    +0.161 C 
BRANCH  50  51
ATOM     51  C   SER A   8       5.906   0.138  19.174  0.00  0.00    +0.247 C 
ATOM     52  O   SER A   8       6.293   0.163  18.005  0.00  0.00    -0.299 OA
ENDBRANCH  50  51
BRANCH  50  53
ATOM     53  CB  SER A   8       6.593  -1.477  20.948  0.00  0.00    +0.185 C 
BRANCH  53  54
ATOM     54  OG  SER A   8       6.191  -1.382  22.314  0.00  0.00    -0.393 OA
ATOM     55  H   SER A   8       7.010  -1.326  22.841  0.00  0.00    +0.209 HD
ENDBRANCH  53  54
ENDBRANCH  50  53
ENDBRANCH  47  50
ENDBRANCH  44  46
ENDBRANCH  42  44
ENDBRANCH  39  40
BRANCH  39  56
ATOM     56  CB  ILE A   6       3.078   3.854  25.275  0.00  0.00    +0.015 C 
ATOM     57  CG2 ILE A   6       1.675   3.503  24.758  0.00  0.00    +0.010 C 
BRANCH  56  58
ATOM     58  CG1 ILE A   6       3.054   4.072  26.808  0.00  0.00    +0.002 C 
ATOM     59  CD1 ILE A   6       1.694   3.857  27.460  0.00  0.00    +0.004 C 
ENDBRANCH  56  58
ENDBRANCH  39  56
ENDBRANCH  36  39
ENDBRANCH  33  35
ENDBRANCH  31  33
ENDBRANCH   1  29
BRANCH   1  60
ATOM     60  CB  GLN A   4       4.531  -3.960  28.793  0.00  0.00    +0.041 C 
BRANCH  60  61
ATOM     61  CG  GLN A   4       4.345  -5.471  28.651  0.00  0.00    +0.098 C 
BRANCH  61  62
ATOM     62  CD  GLN A   4       5.648  -6.241  28.668  0.00  0.00    +0.211 C 
ATOM     63  OE1 GLN A   4       6.743  -5.690  28.672  0.00  0.00    -0.276 OA
ATOM     64  NE2 GLN A   4       5.557  -7.597  28.595  0.00  0.00    -0.329 N 
ATOM     65 HE21 GLN A   4       4.689  -8.109  28.607  0.00  0.00    +0.145 HD
ATOM     66 HE22 GLN A   4       6.424  -8.119  28.602  0.00  0.00    +0.145 HD
ENDBRANCH  61  62
ENDBRANCH  60  61
ENDBRANCH   1  60
TORSDOF 27
ENDMDL
MODEL 18
REMARK VINA RESULT:      -6.1      2.287      6.626
REMARK  Name = ATLQAIAS-mmff94.pdb
REMARK  35 active torsions:
REMARK  status: ('A' for Active; 'I' for Inactive)
REMARK    1  A    between atoms: _1  and  _2
REMARK    2  A    between atoms: _2  and  _3
REMARK    3  A    between atoms: _2  and  _5
REMARK    4  A    between atoms: _11  and  _12
REMARK    5  A    between atoms: _12  and  _13
REMARK    6  A    between atoms: _12  and  _15
REMARK    7  A    between atoms: _15  and  _16
REMARK    8  A    between atoms: _15  and  _17
REMARK    9  A    between atoms: _25  and  _26
REMARK   10  A    between atoms: _26  and  _27
REMARK   11  A    between atoms: _26  and  _29
REMARK   12  A    between atoms: _29  and  _30
REMARK   13  A    between atoms: _30  and  _31
REMARK   14  A    between atoms: _30  and  _32
REMARK   15  A    between atoms: _44  and  _45
REMARK   16  A    between atoms: _45  and  _46
REMARK   17  A    between atoms: _45  and  _48
REMARK   18  A    between atoms: _48  and  _49
REMARK   19  A    between atoms: _49  and  _50
REMARK   20  A    between atoms: _61  and  _62
REMARK   21  A    between atoms: _62  and  _63
REMARK   22  A    between atoms: _62  and  _65
REMARK   23  A    between atoms: _71  and  _72
REMARK   24  A    between atoms: _72  and  _73
REMARK   25  A    between atoms: _72  and  _75
REMARK   26  A    between atoms: _75  and  _76
REMARK   27  A    between atoms: _75  and  _77
REMARK   28  A    between atoms: _76  and  _78
REMARK   29  A    between atoms: _90  and  _91
REMARK   30  A    between atoms: _91  and  _92
REMARK   31  A    between atoms: _91  and  _94
REMARK   32  A    between atoms: _100  and  _101
REMARK   33  A    between atoms: _101  and  _102
REMARK   34  A    between atoms: _101  and  _104
REMARK   35  A    between atoms: _104  and  _105
REMARK                            x       y       z     vdW  Elec       q    Type
REMARK                         _______ _______ _______ _____ _____    ______ ____
ROOT
ATOM      1  CA  GLN A   4       8.754  -3.208  25.963  0.00  0.00    +0.159 C 
ENDROOT
BRANCH   1   3
ATOM      2  C   LEU A   3       7.241  -4.824  27.106  0.00  0.00    +0.234 C 
ATOM      3  N   GLN A   4       7.497  -3.565  26.623  0.00  0.00    -0.302 N 
ATOM      4  H   GLN A   4       6.781  -2.843  26.656  0.00  0.00    +0.150 HD
ATOM      5  O   LEU A   3       8.056  -5.743  27.034  0.00  0.00    -0.274 OA
BRANCH   2   6
ATOM      6  CA  LEU A   3       5.863  -4.995  27.780  0.00  0.00    +0.159 C 
BRANCH   6   9
ATOM      7  C   THR A   2       4.310  -4.850  25.837  0.00  0.00    +0.236 C 
ATOM      8  O   THR A   2       4.354  -3.621  25.796  0.00  0.00    -0.274 OA
ATOM      9  N   LEU A   3       4.975  -5.589  26.785  0.00  0.00    -0.302 N 
ATOM     10  H   LEU A   3       4.998  -6.603  26.715  0.00  0.00    +0.150 HD
BRANCH   7  11
ATOM     11  CA  THR A   2       3.524  -5.669  24.804  0.00  0.00    +0.187 C 
BRANCH  11  13
ATOM     12  C   ALA A   1       4.802  -5.419  22.688  0.00  0.00    +0.230 C 
ATOM     13  N   THR A   2       4.506  -6.134  23.823  0.00  0.00    -0.301 N 
ATOM     14  H   THR A   2       4.877  -7.070  23.950  0.00  0.00    +0.150 HD
ATOM     15  O   ALA A   1       4.381  -4.284  22.471  0.00  0.00    -0.274 OA
BRANCH  12  16
ATOM     16  CA  ALA A   1       5.748  -6.146  21.711  0.00  0.00    +0.135 C 
ATOM     17  CB  ALA A   1       7.104  -6.363  22.370  0.00  0.00    +0.033 C 
BRANCH  16  18
ATOM     18  N   ALA A   1       5.903  -5.350  20.478  0.00  0.00    -0.320 NA
ATOM     19  H1  ALA A   1       6.159  -4.400  20.768  0.00  0.00    +0.119 HD
ATOM     20  H2  ALA A   1       4.973  -5.226  20.072  0.00  0.00    +0.119 HD
ENDBRANCH  16  18
ENDBRANCH  12  16
ENDBRANCH  11  13
BRANCH  11  21
ATOM     21  CB  THR A   2       2.830  -6.856  25.516  0.00  0.00    +0.141 C 
ATOM     22  CG2 THR A   2       1.469  -7.186  24.912  0.00  0.00    +0.040 C 
BRANCH  21  23
ATOM     23  OG1 THR A   2       3.647  -8.031  25.432  0.00  0.00    -0.390 OA
ATOM     24  HG1 THR A   2       4.487  -7.785  25.009  0.00  0.00    +0.210 HD
ENDBRANCH  21  23
ENDBRANCH  11  21
ENDBRANCH   7  11
ENDBRANCH   6   9
BRANCH   6  25
ATOM     25  CB  LEU A   3       6.004  -5.890  29.021  0.00  0.00    +0.034 C 
BRANCH  25  26
ATOM     26  CG  LEU A   3       4.946  -5.655  30.118  0.00  0.00    -0.015 C 
ATOM     27  CD2 LEU A   3       4.354  -4.250  29.970  0.00  0.00    +0.007 C 
ATOM     28  CD1 LEU A   3       3.820  -6.690  30.066  0.00  0.00    +0.007 C 
ENDBRANCH  25  26
ENDBRANCH   6  25
ENDBRANCH   2   6
ENDBRANCH   1   3
BRANCH   1  29
ATOM     29  C   GLN A   4       8.903  -1.682  26.119  0.00  0.00    +0.234 C 
ATOM     30  O   GLN A   4       8.591  -1.104  27.160  0.00  0.00    -0.274 OA
ATOM     31  N   ALA A   5       9.342  -1.021  25.001  0.00  0.00    -0.303 N 
ATOM     32  H   ALA A   5       9.649  -1.531  24.176  0.00  0.00    +0.149 HD
BRANCH  31  33
ATOM     33  CA  ALA A   5       9.401   0.433  24.919  0.00  0.00    +0.156 C 
ATOM     34  CB  ALA A   5      10.772   0.924  24.478  0.00  0.00    +0.038 C 
BRANCH  33  35
ATOM     35  C   ALA A   5       8.331   0.873  23.909  0.00  0.00    +0.234 C 
ATOM     36  N   ILE A   6       8.770   1.747  22.947  0.00  0.00    -0.302 N 
ATOM     37  H   ILE A   6       9.754   2.002  22.892  0.00  0.00    +0.150 HD
ATOM     38  O   ALA A   5       7.171   0.467  23.973  0.00  0.00    -0.274 OA
BRANCH  36  39
ATOM     39  CA  ILE A   6       7.902   2.305  21.906  0.00  0.00    +0.162 C 
BRANCH  39  40
ATOM     40  C   ILE A   6       6.967   3.269  22.672  0.00  0.00    +0.234 C 
ATOM     41  O   ILE A   6       7.343   4.382  23.043  0.00  0.00    -0.274 OA
ATOM     42  N   ALA A   7       5.709   2.788  22.940  0.00  0.00    -0.303 N 
ATOM     43  H   ALA A   7       5.450   1.843  22.671  0.00  0.00    +0.149 HD
BRANCH  42  44
ATOM     44  CA  ALA A   7       4.757   3.510  23.775  0.00  0.00    +0.156 C 
ATOM     45  CB  ALA A   7       3.560   3.980  22.959  0.00  0.00    +0.038 C 
BRANCH  44  46
ATOM     46  C   ALA A   7       4.321   2.567  24.910  0.00  0.00    +0.234 C 
ATOM     47  N   SER A   8       5.337   2.081  25.696  0.00  0.00    -0.302 N 
ATOM     48  H   SER A   8       6.268   2.488  25.632  0.00  0.00    +0.150 HD
ATOM     49  O   ALA A   7       3.142   2.260  25.096  0.00  0.00    -0.274 OA
BRANCH  47  50
ATOM     50  CA  SER A   8       5.072   1.275  26.888  0.00  0.00    +0.161 C 
BRANCH  50  51
ATOM     51  C   SER A   8       6.340   1.249  27.727  0.00  0.00    +0.247 C 
ATOM     52  O   SER A   8       6.353   0.902  28.909  0.00  0.00    -0.299 OA
ENDBRANCH  50  51
BRANCH  50  53
ATOM     53  CB  SER A   8       4.644  -0.157  26.553  0.00  0.00    +0.185 C 
BRANCH  53  54
ATOM     54  OG  SER A   8       5.741  -0.912  26.039  0.00  0.00    -0.393 OA
ATOM     55  H   SER A   8       5.642  -0.919  25.068  0.00  0.00    +0.209 HD
ENDBRANCH  53  54
ENDBRANCH  50  53
ENDBRANCH  47  50
ENDBRANCH  44  46
ENDBRANCH  42  44
ENDBRANCH  39  40
BRANCH  39  56
ATOM     56  CB  ILE A   6       7.095   1.200  21.158  0.00  0.00    +0.015 C 
ATOM     57  CG2 ILE A   6       5.935   1.804  20.352  0.00  0.00    +0.010 C 
BRANCH  56  58
ATOM     58  CG1 ILE A   6       8.007   0.347  20.243  0.00  0.00    +0.002 C 
ATOM     59  CD1 ILE A   6       7.476   0.141  18.830  0.00  0.00    +0.004 C 
ENDBRANCH  56  58
ENDBRANCH  39  56
ENDBRANCH  36  39
ENDBRANCH  33  35
ENDBRANCH  31  33
ENDBRANCH   1  29
BRANCH   1  60
ATOM     60  CB  GLN A   4       8.715  -3.611  24.481  0.00  0.00    +0.041 C 
BRANCH  60  61
ATOM     61  CG  GLN A   4       7.402  -3.263  23.780  0.00  0.00    +0.098 C 
BRANCH  61  62
ATOM     62  CD  GLN A   4       7.596  -2.612  22.427  0.00  0.00    +0.211 C 
ATOM     63  OE1 GLN A   4       8.677  -2.174  22.052  0.00  0.00    -0.276 OA
ATOM     64  NE2 GLN A   4       6.483  -2.456  21.659  0.00  0.00    -0.329 N 
ATOM     65 HE21 GLN A   4       5.570  -2.810  21.904  0.00  0.00    +0.145 HD
ATOM     66 HE22 GLN A   4       6.604  -2.019  20.755  0.00  0.00    +0.145 HD
ENDBRANCH  61  62
ENDBRANCH  60  61
ENDBRANCH   1  60
TORSDOF 27
ENDMDL
MODEL 19
REMARK VINA RESULT:      -6.1      2.232      6.588
REMARK  Name = ATLQAIAS-mmff94.pdb
REMARK  35 active torsions:
REMARK  status: ('A' for Active; 'I' for Inactive)
REMARK    1  A    between atoms: _1  and  _2
REMARK    2  A    between atoms: _2  and  _3
REMARK    3  A    between atoms: _2  and  _5
REMARK    4  A    between atoms: _11  and  _12
REMARK    5  A    between atoms: _12  and  _13
REMARK    6  A    between atoms: _12  and  _15
REMARK    7  A    between atoms: _15  and  _16
REMARK    8  A    between atoms: _15  and  _17
REMARK    9  A    between atoms: _25  and  _26
REMARK   10  A    between atoms: _26  and  _27
REMARK   11  A    between atoms: _26  and  _29
REMARK   12  A    between atoms: _29  and  _30
REMARK   13  A    between atoms: _30  and  _31
REMARK   14  A    between atoms: _30  and  _32
REMARK   15  A    between atoms: _44  and  _45
REMARK   16  A    between atoms: _45  and  _46
REMARK   17  A    between atoms: _45  and  _48
REMARK   18  A    between atoms: _48  and  _49
REMARK   19  A    between atoms: _49  and  _50
REMARK   20  A    between atoms: _61  and  _62
REMARK   21  A    between atoms: _62  and  _63
REMARK   22  A    between atoms: _62  and  _65
REMARK   23  A    between atoms: _71  and  _72
REMARK   24  A    between atoms: _72  and  _73
REMARK   25  A    between atoms: _72  and  _75
REMARK   26  A    between atoms: _75  and  _76
REMARK   27  A    between atoms: _75  and  _77
REMARK   28  A    between atoms: _76  and  _78
REMARK   29  A    between atoms: _90  and  _91
REMARK   30  A    between atoms: _91  and  _92
REMARK   31  A    between atoms: _91  and  _94
REMARK   32  A    between atoms: _100  and  _101
REMARK   33  A    between atoms: _101  and  _102
REMARK   34  A    between atoms: _101  and  _104
REMARK   35  A    between atoms: _104  and  _105
REMARK                            x       y       z     vdW  Elec       q    Type
REMARK                         _______ _______ _______ _____ _____    ______ ____
ROOT
ATOM      1  CA  GLN A   4       4.557  -1.566  26.561  0.00  0.00    +0.159 C 
ENDROOT
BRANCH   1   3
ATOM      2  C   LEU A   3       4.102  -3.145  24.689  0.00  0.00    +0.234 C 
ATOM      3  N   GLN A   4       4.977  -2.381  25.421  0.00  0.00    -0.302 N 
ATOM      4  H   GLN A   4       5.975  -2.408  25.224  0.00  0.00    +0.150 HD
ATOM      5  O   LEU A   3       2.896  -3.189  24.929  0.00  0.00    -0.274 OA
BRANCH   2   6
ATOM      6  CA  LEU A   3       4.738  -3.923  23.518  0.00  0.00    +0.159 C 
BRANCH   6   9
ATOM      7  C   THR A   2       6.012  -3.135  21.527  0.00  0.00    +0.236 C 
ATOM      8  O   THR A   2       5.644  -4.076  20.824  0.00  0.00    -0.274 OA
ATOM      9  N   LEU A   3       5.654  -3.006  22.847  0.00  0.00    -0.302 N 
ATOM     10  H   LEU A   3       5.891  -2.159  23.357  0.00  0.00    +0.150 HD
BRANCH   7  11
ATOM     11  CA  THR A   2       6.885  -2.001  20.973  0.00  0.00    +0.187 C 
BRANCH  11  13
ATOM     12  C   ALA A   1       6.263  -0.218  19.358  0.00  0.00    +0.230 C 
ATOM     13  N   THR A   2       5.960  -0.995  20.450  0.00  0.00    -0.301 N 
ATOM     14  H   THR A   2       5.129  -0.804  20.999  0.00  0.00    +0.150 HD
ATOM     15  O   ALA A   1       7.256  -0.394  18.655  0.00  0.00    -0.274 OA
BRANCH  12  16
ATOM     16  CA  ALA A   1       5.226   0.882  19.056  0.00  0.00    +0.135 C 
ATOM     17  CB  ALA A   1       5.557   1.555  17.730  0.00  0.00    +0.033 C 
BRANCH  16  18
ATOM     18  N   ALA A   1       5.220   1.878  20.144  0.00  0.00    -0.320 NA
ATOM     19  H1  ALA A   1       5.030   1.367  21.013  0.00  0.00    +0.119 HD
ATOM     20  H2  ALA A   1       4.385   2.456  20.029  0.00  0.00    +0.119 HD
ENDBRANCH  16  18
ENDBRANCH  12  16
ENDBRANCH  11  13
BRANCH  11  21
ATOM     21  CB  THR A   2       7.760  -1.428  22.114  0.00  0.00    +0.141 C 
ATOM     22  CG2 THR A   2       9.145  -1.004  21.635  0.00  0.00    +0.040 C 
BRANCH  21  23
ATOM     23  OG1 THR A   2       7.125  -0.281  22.697  0.00  0.00    -0.390 OA
ATOM     24  HG1 THR A   2       6.421   0.012  22.094  0.00  0.00    +0.210 HD
ENDBRANCH  21  23
ENDBRANCH  11  21
ENDBRANCH   7  11
ENDBRANCH   6   9
BRANCH   6  25
ATOM     25  CB  LEU A   3       5.471  -5.161  24.060  0.00  0.00    +0.034 C 
BRANCH  25  26
ATOM     26  CG  LEU A   3       4.653  -6.467  24.031  0.00  0.00    -0.015 C 
ATOM     27  CD2 LEU A   3       4.314  -6.896  25.462  0.00  0.00    +0.007 C 
ATOM     28  CD1 LEU A   3       3.362  -6.323  23.223  0.00  0.00    +0.007 C 
ENDBRANCH  25  26
ENDBRANCH   6  25
ENDBRANCH   2   6
ENDBRANCH   1   3
BRANCH   1  29
ATOM     29  C   GLN A   4       5.117  -0.153  26.308  0.00  0.00    +0.234 C 
ATOM     30  O   GLN A   4       5.874   0.085  25.367  0.00  0.00    -0.274 OA
ATOM     31  N   ALA A   5       4.763   0.791  27.237  0.00  0.00    -0.303 N 
ATOM     32  H   ALA A   5       4.089   0.580  27.970  0.00  0.00    +0.149 HD
BRANCH  31  33
ATOM     33  CA  ALA A   5       5.317   2.139  27.240  0.00  0.00    +0.156 C 
ATOM     34  CB  ALA A   5       6.812   2.141  27.521  0.00  0.00    +0.038 C 
BRANCH  33  35
ATOM     35  C   ALA A   5       5.038   2.746  25.856  0.00  0.00    +0.234 C 
ATOM     36  N   ILE A   6       6.149   2.937  25.075  0.00  0.00    -0.302 N 
ATOM     37  H   ILE A   6       7.062   2.618  25.390  0.00  0.00    +0.150 HD
ATOM     38  O   ALA A   5       3.899   3.037  25.493  0.00  0.00    -0.274 OA
BRANCH  36  39
ATOM     39  CA  ILE A   6       6.101   3.525  23.733  0.00  0.00    +0.162 C 
BRANCH  39  40
ATOM     40  C   ILE A   6       7.420   3.063  23.072  0.00  0.00    +0.234 C 
ATOM     41  O   ILE A   6       7.571   3.067  21.849  0.00  0.00    -0.274 OA
ATOM     42  N   ALA A   7       8.391   2.617  23.933  0.00  0.00    -0.303 N 
ATOM     43  H   ALA A   7       8.214   2.572  24.933  0.00  0.00    +0.149 HD
BRANCH  42  44
ATOM     44  CA  ALA A   7       9.634   2.014  23.466  0.00  0.00    +0.156 C 
ATOM     45  CB  ALA A   7      10.725   3.063  23.307  0.00  0.00    +0.038 C 
BRANCH  44  46
ATOM     46  C   ALA A   7      10.043   0.936  24.486  0.00  0.00    +0.234 C 
ATOM     47  N   SER A   8       9.023   0.133  24.935  0.00  0.00    -0.302 N 
ATOM     48  H   SER A   8       8.121   0.144  24.463  0.00  0.00    +0.150 HD
ATOM     49  O   ALA A   7      11.203   0.808  24.881  0.00  0.00    -0.274 OA
BRANCH  47  50
ATOM     50  CA  SER A   8       9.274  -1.014  25.809  0.00  0.00    +0.161 C 
BRANCH  50  51
ATOM     51  C   SER A   8       8.857  -2.272  25.062  0.00  0.00    +0.247 C 
ATOM     52  O   SER A   8       7.748  -2.791  25.193  0.00  0.00    -0.299 OA
ENDBRANCH  50  51
BRANCH  50  53
ATOM     53  CB  SER A   8       8.514  -0.926  27.136  0.00  0.00    +0.185 C 
BRANCH  53  54
ATOM     54  OG  SER A   8       9.242  -0.158  28.093  0.00  0.00    -0.393 OA
ATOM     55  H   SER A   8       9.657   0.576  27.603  0.00  0.00    +0.209 HD
ENDBRANCH  53  54
ENDBRANCH  50  53
ENDBRANCH  47  50
ENDBRANCH  44  46
ENDBRANCH  42  44
ENDBRANCH  39  40
BRANCH  39  56
ATOM     56  CB  ILE A   6       5.998   5.080  23.775  0.00  0.00    +0.015 C 
ATOM     57  CG2 ILE A   6       7.374   5.737  23.592  0.00  0.00    +0.010 C 
BRANCH  56  58
ATOM     58  CG1 ILE A   6       4.995   5.615  22.722  0.00  0.00    +0.002 C 
ATOM     59  CD1 ILE A   6       3.818   4.691  22.438  0.00  0.00    +0.004 C 
ENDBRANCH  56  58
ENDBRANCH  39  56
ENDBRANCH  36  39
ENDBRANCH  33  35
ENDBRANCH  31  33
ENDBRANCH   1  29
BRANCH   1  60
ATOM     60  CB  GLN A   4       5.107  -2.151  27.871  0.00  0.00    +0.041 C 
BRANCH  60  61
ATOM     61  CG  GLN A   4       4.536  -3.525  28.221  0.00  0.00    +0.098 C 
BRANCH  61  62
ATOM     62  CD  GLN A   4       5.574  -4.627  28.214  0.00  0.00    +0.211 C 
ATOM     63  OE1 GLN A   4       6.442  -4.714  27.353  0.00  0.00    -0.276 OA
ATOM     64  NE2 GLN A   4       5.455  -5.584  29.175  0.00  0.00    -0.329 N 
ATOM     65 HE21 GLN A   4       4.776  -5.560  29.920  0.00  0.00    +0.145 HD
ATOM     66 HE22 GLN A   4       6.143  -6.327  29.174  0.00  0.00    +0.145 HD
ENDBRANCH  61  62
ENDBRANCH  60  61
ENDBRANCH   1  60
TORSDOF 27
ENDMDL
MODEL 20
REMARK VINA RESULT:      -6.0      2.161      6.758
REMARK  Name = ATLQAIAS-mmff94.pdb
REMARK  35 active torsions:
REMARK  status: ('A' for Active; 'I' for Inactive)
REMARK    1  A    between atoms: _1  and  _2
REMARK    2  A    between atoms: _2  and  _3
REMARK    3  A    between atoms: _2  and  _5
REMARK    4  A    between atoms: _11  and  _12
REMARK    5  A    between atoms: _12  and  _13
REMARK    6  A    between atoms: _12  and  _15
REMARK    7  A    between atoms: _15  and  _16
REMARK    8  A    between atoms: _15  and  _17
REMARK    9  A    between atoms: _25  and  _26
REMARK   10  A    between atoms: _26  and  _27
REMARK   11  A    between atoms: _26  and  _29
REMARK   12  A    between atoms: _29  and  _30
REMARK   13  A    between atoms: _30  and  _31
REMARK   14  A    between atoms: _30  and  _32
REMARK   15  A    between atoms: _44  and  _45
REMARK   16  A    between atoms: _45  and  _46
REMARK   17  A    between atoms: _45  and  _48
REMARK   18  A    between atoms: _48  and  _49
REMARK   19  A    between atoms: _49  and  _50
REMARK   20  A    between atoms: _61  and  _62
REMARK   21  A    between atoms: _62  and  _63
REMARK   22  A    between atoms: _62  and  _65
REMARK   23  A    between atoms: _71  and  _72
REMARK   24  A    between atoms: _72  and  _73
REMARK   25  A    between atoms: _72  and  _75
REMARK   26  A    between atoms: _75  and  _76
REMARK   27  A    between atoms: _75  and  _77
REMARK   28  A    between atoms: _76  and  _78
REMARK   29  A    between atoms: _90  and  _91
REMARK   30  A    between atoms: _91  and  _92
REMARK   31  A    between atoms: _91  and  _94
REMARK   32  A    between atoms: _100  and  _101
REMARK   33  A    between atoms: _101  and  _102
REMARK   34  A    between atoms: _101  and  _104
REMARK   35  A    between atoms: _104  and  _105
REMARK                            x       y       z     vdW  Elec       q    Type
REMARK                         _______ _______ _______ _____ _____    ______ ____
ROOT
ATOM      1  CA  GLN A   4       7.300  -0.918  21.689  0.00  0.00    +0.159 C 
ENDROOT
BRANCH   1   3
ATOM      2  C   LEU A   3       6.327   1.186  22.602  0.00  0.00    +0.234 C 
ATOM      3  N   GLN A   4       6.643  -0.143  22.742  0.00  0.00    -0.302 N 
ATOM      4  H   GLN A   4       6.481  -0.623  23.625  0.00  0.00    +0.150 HD
ATOM      5  O   LEU A   3       6.560   1.820  21.573  0.00  0.00    -0.274 OA
BRANCH   2   6
ATOM      6  CA  LEU A   3       5.627   1.821  23.822  0.00  0.00    +0.159 C 
BRANCH   6   9
ATOM      7  C   THR A   2       4.979   0.710  25.956  0.00  0.00    +0.236 C 
ATOM      8  O   THR A   2       3.877   1.258  25.995  0.00  0.00    -0.274 OA
ATOM      9  N   LEU A   3       5.899   0.955  24.965  0.00  0.00    -0.302 N 
ATOM     10  H   LEU A   3       6.750   0.401  24.914  0.00  0.00    +0.150 HD
BRANCH   7  11
ATOM     11  CA  THR A   2       5.409  -0.323  27.005  0.00  0.00    +0.187 C 
BRANCH  11  13
ATOM     12  C   ALA A   1       7.029   0.891  28.447  0.00  0.00    +0.230 C 
ATOM     13  N   THR A   2       5.754   0.438  28.207  0.00  0.00    -0.301 N 
ATOM     14  H   THR A   2       5.039   0.519  28.922  0.00  0.00    +0.150 HD
ATOM     15  O   ALA A   1       7.941   0.819  27.626  0.00  0.00    -0.274 OA
BRANCH  12  16
ATOM     16  CA  ALA A   1       7.219   1.540  29.833  0.00  0.00    +0.135 C 
ATOM     17  CB  ALA A   1       7.044   3.050  29.725  0.00  0.00    +0.033 C 
BRANCH  16  18
ATOM     18  N   ALA A   1       8.561   1.220  30.357  0.00  0.00    -0.320 NA
ATOM     19  H1  ALA A   1       9.223   1.839  29.877  0.00  0.00    +0.119 HD
ATOM     20  H2  ALA A   1       8.815   0.293  30.008  0.00  0.00    +0.119 HD
ENDBRANCH  16  18
ENDBRANCH  12  16
ENDBRANCH  11  13
BRANCH  11  21
ATOM     21  CB  THR A   2       4.238  -1.300  27.270  0.00  0.00    +0.141 C 
ATOM     22  CG2 THR A   2       3.368  -0.866  28.445  0.00  0.00    +0.040 C 
BRANCH  21  23
ATOM     23  OG1 THR A   2       3.399  -1.393  26.111  0.00  0.00    -0.390 OA
ATOM     24  HG1 THR A   2       2.554  -1.790  26.381  0.00  0.00    +0.210 HD
ENDBRANCH  21  23
ENDBRANCH  11  21
ENDBRANCH   7  11
ENDBRANCH   6   9
BRANCH   6  25
ATOM     25  CB  LEU A   3       6.168   3.242  24.045  0.00  0.00    +0.034 C 
BRANCH  25  26
ATOM     26  CG  LEU A   3       7.704   3.351  24.116  0.00  0.00    -0.015 C 
ATOM     27  CD2 LEU A   3       8.186   4.470  23.187  0.00  0.00    +0.007 C 
ATOM     28  CD1 LEU A   3       8.200   3.620  25.538  0.00  0.00    +0.007 C 
ENDBRANCH  25  26
ENDBRANCH   6  25
ENDBRANCH   2   6
ENDBRANCH   1   3
BRANCH   1  29
ATOM     29  C   GLN A   4       6.493  -2.224  21.550  0.00  0.00    +0.234 C 
ATOM     30  O   GLN A   4       5.725  -2.413  20.608  0.00  0.00    -0.274 OA
ATOM     31  N   ALA A   5       6.648  -3.118  22.577  0.00  0.00    -0.303 N 
ATOM     32  H   ALA A   5       7.335  -2.962  23.311  0.00  0.00    +0.149 HD
BRANCH  31  33
ATOM     33  CA  ALA A   5       5.855  -4.336  22.686  0.00  0.00    +0.156 C 
ATOM     34  CB  ALA A   5       6.672  -5.503  23.221  0.00  0.00    +0.038 C 
BRANCH  33  35
ATOM     35  C   ALA A   5       4.686  -4.031  23.635  0.00  0.00    +0.234 C 
ATOM     36  N   ILE A   6       3.881  -5.103  23.925  0.00  0.00    -0.302 N 
ATOM     37  H   ILE A   6       4.117  -6.032  23.581  0.00  0.00    +0.150 HD
ATOM     38  O   ALA A   5       4.496  -2.903  24.090  0.00  0.00    -0.274 OA
BRANCH  36  39
ATOM     39  CA  ILE A   6       2.701  -5.017  24.789  0.00  0.00    +0.162 C 
BRANCH  39  40
ATOM     40  C   ILE A   6       3.271  -5.151  26.220  0.00  0.00    +0.234 C 
ATOM     41  O   ILE A   6       2.567  -4.994  27.218  0.00  0.00    -0.274 OA
ATOM     42  N   ALA A   7       4.615  -5.420  26.300  0.00  0.00    -0.303 N 
ATOM     43  H   ALA A   7       5.179  -5.487  25.458  0.00  0.00    +0.149 HD
BRANCH  42  44
ATOM     44  CA  ALA A   7       5.335  -5.435  27.568  0.00  0.00    +0.156 C 
ATOM     45  CB  ALA A   7       5.115  -6.747  28.308  0.00  0.00    +0.038 C 
BRANCH  44  46
ATOM     46  C   ALA A   7       6.827  -5.212  27.261  0.00  0.00    +0.234 C 
ATOM     47  N   SER A   8       7.120  -4.070  26.558  0.00  0.00    -0.302 N 
ATOM     48  H   SER A   8       6.410  -3.349  26.439  0.00  0.00    +0.150 HD
ATOM     49  O   ALA A   7       7.698  -6.009  27.612  0.00  0.00    -0.274 OA
BRANCH  47  50
ATOM     50  CA  SER A   8       8.499  -3.656  26.299  0.00  0.00    +0.161 C 
BRANCH  50  51
ATOM     51  C   SER A   8       8.488  -2.175  25.951  0.00  0.00    +0.247 C 
ATOM     52  O   SER A   8       7.735  -1.693  25.103  0.00  0.00    -0.299 OA
ENDBRANCH  50  51
BRANCH  50  53
ATOM     53  CB  SER A   8       9.152  -4.448  25.162  0.00  0.00    +0.185 C 
BRANCH  53  54
ATOM     54  OG  SER A   8      10.008  -5.468  25.674  0.00  0.00    -0.393 OA
ATOM     55  H   SER A   8      10.800  -5.478  25.105  0.00  0.00    +0.209 HD
ENDBRANCH  53  54
ENDBRANCH  50  53
ENDBRANCH  47  50
ENDBRANCH  44  46
ENDBRANCH  42  44
ENDBRANCH  39  40
BRANCH  39  56
ATOM     56  CB  ILE A   6       1.663  -6.138  24.481  0.00  0.00    +0.015 C 
ATOM     57  CG2 ILE A   6       1.455  -6.308  22.968  0.00  0.00    +0.010 C 
BRANCH  56  58
ATOM     58  CG1 ILE A   6       2.066  -7.486  25.129  0.00  0.00    +0.002 C 
ATOM     59  CD1 ILE A   6       1.764  -8.715  24.281  0.00  0.00    +0.004 C 
ENDBRANCH  56  58
ENDBRANCH  39  56
ENDBRANCH  36  39
ENDBRANCH  33  35
ENDBRANCH  31  33
ENDBRANCH   1  29
BRANCH   1  60
ATOM     60  CB  GLN A   4       8.761  -1.209  22.067  0.00  0.00    +0.041 C 
BRANCH  60  61
ATOM     61  CG  GLN A   4       9.746  -0.140  21.595  0.00  0.00    +0.098 C 
BRANCH  61  62
ATOM     62  CD  GLN A   4      10.063   0.895  22.653  0.00  0.00    +0.211 C 
ATOM     63  OE1 GLN A   4      10.452   2.025  22.379  0.00  0.00    -0.276 OA
ATOM     64  NE2 GLN A   4       9.975   0.491  23.950  0.00  0.00    -0.329 N 
ATOM     65 HE21 GLN A   4       9.645  -0.417  24.240  0.00  0.00    +0.145 HD
ATOM     66 HE22 GLN A   4      10.189   1.176  24.663  0.00  0.00    +0.145 HD
ENDBRANCH  61  62
ENDBRANCH  60  61
ENDBRANCH   1  60
TORSDOF 27
ENDMDL
