REMARK  Name = ATLQAENV-mmff94.pdb
REMARK  36 active torsions:
REMARK  status: ('A' for Active; 'I' for Inactive)
REMARK    1  A    between atoms: _1  and  _2
REMARK    2  A    between atoms: _2  and  _3
REMARK    3  A    between atoms: _2  and  _5
REMARK    4  A    between atoms: _11  and  _12
REMARK    5  A    between atoms: _12  and  _13
REMARK    6  A    between atoms: _12  and  _15
REMARK    7  A    between atoms: _15  and  _16
REMARK    8  A    between atoms: _15  and  _17
REMARK    9  A    between atoms: _25  and  _26
REMARK   10  A    between atoms: _26  and  _27
REMARK   11  A    between atoms: _26  and  _29
REMARK   12  A    between atoms: _29  and  _30
REMARK   13  A    between atoms: _30  and  _31
REMARK   14  A    between atoms: _30  and  _32
REMARK   15  A    between atoms: _44  and  _45
REMARK   16  A    between atoms: _45  and  _46
REMARK   17  A    between atoms: _45  and  _48
REMARK   18  A    between atoms: _48  and  _49
REMARK   19  A    between atoms: _49  and  _50
REMARK   20  A    between atoms: _61  and  _62
REMARK   21  A    between atoms: _62  and  _63
REMARK   22  A    between atoms: _62  and  _65
REMARK   23  A    between atoms: _71  and  _72
REMARK   24  A    between atoms: _72  and  _73
REMARK   25  A    between atoms: _72  and  _75
REMARK   26  A    between atoms: _75  and  _76
REMARK   27  A    between atoms: _76  and  _77
REMARK   28  A    between atoms: _86  and  _87
REMARK   29  A    between atoms: _87  and  _88
REMARK   30  A    between atoms: _87  and  _90
REMARK   31  A    between atoms: _90  and  _91
REMARK   32  A    between atoms: _100  and  _101
REMARK   33  A    between atoms: _101  and  _102
REMARK   34  A    between atoms: _101  and  _104
REMARK   35  A    between atoms: _104  and  _105
REMARK   36  A    between atoms: _104  and  _106
REMARK                            x       y       z     vdW  Elec       q    Type
REMARK                         _______ _______ _______ _____ _____    ______ ____
ROOT
ATOM      1  C   GLN A   4      10.602   5.409  -0.702  0.00  0.00    +0.234 C 
ATOM      2  O   GLN A   4       9.954   6.357  -1.149  0.00  0.00    -0.274 OA
ATOM      3  N   ALA A   5      11.892   5.534  -0.257  0.00  0.00    -0.303 N 
ATOM      4  H   ALA A   5      12.401   4.740   0.125  0.00  0.00    +0.149 HD
ENDROOT
BRANCH   3   5
ATOM      5  CA  ALA A   5      12.629   6.791  -0.321  0.00  0.00    +0.156 C 
ATOM      6  CB  ALA A   5      12.210   7.745   0.791  0.00  0.00    +0.038 C 
BRANCH   5   7
ATOM      7  C   ALA A   5      14.128   6.465  -0.200  0.00  0.00    +0.234 C 
ATOM      8  N   GLU A   6      14.961   7.488  -0.570  0.00  0.00    -0.302 N 
ATOM      9  H   GLU A   6      14.585   8.312  -1.028  0.00  0.00    +0.150 HD
ATOM     10  O   ALA A   5      14.521   5.383   0.235  0.00  0.00    -0.274 OA
BRANCH   8  11
ATOM     11  CA  GLU A   6      16.420   7.368  -0.594  0.00  0.00    +0.159 C 
BRANCH  11  12
ATOM     12  C   GLU A   6      16.943   8.811  -0.465  0.00  0.00    +0.234 C 
ATOM     13  O   GLU A   6      16.325   9.778  -0.920  0.00  0.00    -0.274 OA
ATOM     14  N   ASN A   7      18.143   8.958   0.185  0.00  0.00    -0.302 N 
ATOM     15  H   ASN A   7      18.676   8.124   0.430  0.00  0.00    +0.150 HD
BRANCH  14  16
ATOM     16  CA  ASN A   7      18.875  10.223   0.208  0.00  0.00    +0.168 C 
BRANCH  16  17
ATOM     17  C   ASN A   7      20.372   9.869   0.243  0.00  0.00    +0.234 C 
ATOM     18  N   VAL A   8      21.196  10.759  -0.401  0.00  0.00    -0.304 N 
ATOM     19  H   VAL A   8      20.813  11.581  -0.857  0.00  0.00    +0.149 HD
ATOM     20  O   ASN A   7      20.792   8.886   0.851  0.00  0.00    -0.274 OA
BRANCH  18  21
ATOM     21  CA  VAL A   8      22.647  10.604  -0.436  0.00  0.00    +0.138 C 
BRANCH  21  22
ATOM     22  CB  VAL A   8      23.149   9.983  -1.757  0.00  0.00    +0.010 C 
ATOM     23  CG2 VAL A   8      22.558   8.588  -1.993  0.00  0.00    +0.009 C 
ATOM     24  CG1 VAL A   8      24.679   9.881  -1.787  0.00  0.00    +0.009 C 
ENDBRANCH  21  22
BRANCH  21  25
ATOM     25  C   VAL A   8      23.212  12.009  -0.241  0.00  0.00    +0.245 C 
ATOM     26  O   VAL A   8      22.602  13.042  -0.516  0.00  0.00    -0.299 OA
ENDBRANCH  21  25
ENDBRANCH  18  21
ENDBRANCH  16  17
BRANCH  16  27
ATOM     27  CB  ASN A   7      18.572  11.071   1.442  0.00  0.00    +0.127 C 
BRANCH  27  28
ATOM     28  CG  ASN A   7      17.302  11.893   1.455  0.00  0.00    +0.213 C 
ATOM     29  OD1 ASN A   7      16.880  12.402   2.493  0.00  0.00    -0.276 OA
ATOM     30  ND2 ASN A   7      16.675  12.161   0.281  0.00  0.00    -0.329 N 
ATOM     31 HD21 ASN A   7      15.798  12.653   0.397  0.00  0.00    +0.145 HD
ATOM     32 HD22 ASN A   7      16.608  11.409  -0.409  0.00  0.00    +0.145 HD
ENDBRANCH  27  28
ENDBRANCH  16  27
ENDBRANCH  14  16
ENDBRANCH  11  12
BRANCH  11  33
ATOM     33  CB  GLU A   6      16.881   6.732  -1.908  0.00  0.00    +0.037 C 
BRANCH  33  34
ATOM     34  CG  GLU A   6      18.382   6.460  -1.964  0.00  0.00    +0.054 C 
BRANCH  34  35
ATOM     35  CD  GLU A   6      18.860   5.869  -3.293  0.00  0.00    +0.042 C 
ATOM     36  OE2 GLU A   6      20.117   5.784  -3.391  0.00  0.00    -0.550 OA
ATOM     37  OE1 GLU A   6      17.964   5.562  -4.125  0.00  0.00    -0.550 OA
ENDBRANCH  34  35
ENDBRANCH  33  34
ENDBRANCH  11  33
ENDBRANCH   8  11
ENDBRANCH   5   7
ENDBRANCH   3   5
BRANCH   1  38
ATOM     38  CA  GLN A   4      10.017   3.986  -0.645  0.00  0.00    +0.159 C 
BRANCH  38  40
ATOM     39  C   LEU A   3       7.719   3.158  -0.159  0.00  0.00    +0.234 C 
ATOM     40  N   GLN A   4       8.564   4.153  -0.581  0.00  0.00    -0.302 N 
ATOM     41  H   GLN A   4       8.198   5.031  -0.940  0.00  0.00    +0.150 HD
ATOM     42  O   LEU A   3       8.117   2.065   0.242  0.00  0.00    -0.274 OA
BRANCH  39  43
ATOM     43  CA  LEU A   3       6.220   3.522  -0.184  0.00  0.00    +0.159 C 
BRANCH  43  46
ATOM     44  C   THR A   2       4.400   1.986  -0.911  0.00  0.00    +0.236 C 
ATOM     45  O   THR A   2       3.890   2.818  -1.662  0.00  0.00    -0.274 OA
ATOM     46  N   LEU A   3       5.488   2.260  -0.120  0.00  0.00    -0.302 N 
ATOM     47  H   LEU A   3       5.947   1.510   0.391  0.00  0.00    +0.150 HD
BRANCH  44  48
ATOM     48  CA  THR A   2       3.870   0.549  -0.818  0.00  0.00    +0.187 C 
BRANCH  48  50
ATOM     49  C   ALA A   1       1.592  -0.177  -0.131  0.00  0.00    +0.230 C 
ATOM     50  N   THR A   2       2.409   0.663  -0.847  0.00  0.00    -0.301 N 
ATOM     51  H   THR A   2       2.017   1.326  -1.506  0.00  0.00    +0.150 HD
ATOM     52  O   ALA A   1       2.005  -1.007   0.677  0.00  0.00    -0.274 OA
BRANCH  49  53
ATOM     53  CA  ALA A   1       0.087   0.032  -0.395  0.00  0.00    +0.135 C 
ATOM     54  CB  ALA A   1      -0.469   1.043   0.598  0.00  0.00    +0.033 C 
BRANCH  53  55
ATOM     55  N   ALA A   1      -0.624  -1.256  -0.265  0.00  0.00    -0.320 NA
ATOM     56  H1  ALA A   1      -0.192  -1.912  -0.919  0.00  0.00    +0.119 HD
ATOM     57  H2  ALA A   1      -0.371  -1.640   0.652  0.00  0.00    +0.119 HD
ENDBRANCH  53  55
ENDBRANCH  49  53
ENDBRANCH  48  50
BRANCH  48  58
ATOM     58  CB  THR A   2       4.401  -0.271  -2.019  0.00  0.00    +0.141 C 
ATOM     59  CG2 THR A   2       5.903  -0.529  -1.932  0.00  0.00    +0.040 C 
BRANCH  58  60
ATOM     60  OG1 THR A   2       3.736  -1.540  -2.090  0.00  0.00    -0.390 OA
ATOM     61  HG1 THR A   2       4.126  -2.041  -2.826  0.00  0.00    +0.210 HD
ENDBRANCH  58  60
ENDBRANCH  48  58
ENDBRANCH  44  48
ENDBRANCH  43  46
BRANCH  43  62
ATOM     62  CB  LEU A   3       5.892   4.434   1.008  0.00  0.00    +0.034 C 
BRANCH  62  63
ATOM     63  CG  LEU A   3       4.445   4.965   1.042  0.00  0.00    -0.015 C 
ATOM     64  CD2 LEU A   3       4.185   5.674   2.374  0.00  0.00    +0.007 C 
ATOM     65  CD1 LEU A   3       4.157   5.928  -0.111  0.00  0.00    +0.007 C 
ENDBRANCH  62  63
ENDBRANCH  43  62
ENDBRANCH  39  43
ENDBRANCH  38  40
BRANCH  38  66
ATOM     66  CB  GLN A   4      10.410   3.173  -1.885  0.00  0.00    +0.041 C 
BRANCH  66  67
ATOM     67  CG  GLN A   4      11.870   2.727  -1.886  0.00  0.00    +0.098 C 
BRANCH  67  68
ATOM     68  CD  GLN A   4      12.087   1.670  -2.943  0.00  0.00    +0.211 C 
ATOM     69  OE1 GLN A   4      12.059   0.468  -2.708  0.00  0.00    -0.276 OA
ATOM     70  NE2 GLN A   4      12.241   2.140  -4.213  0.00  0.00    -0.329 N 
ATOM     71 HE21 GLN A   4      12.567   3.083  -4.383  0.00  0.00    +0.145 HD
ATOM     72 HE22 GLN A   4      12.485   1.447  -4.910  0.00  0.00    +0.145 HD
ENDBRANCH  67  68
ENDBRANCH  66  67
ENDBRANCH  38  66
ENDBRANCH   1  38
TORSDOF 29
