MODEL 1
REMARK VINA RESULT:      -6.0      0.000      0.000
REMARK  Name = ATVQSKMS-mmff94.pdb
REMARK  39 active torsions:
REMARK  status: ('A' for Active; 'I' for Inactive)
REMARK    1  A    between atoms: _1  and  _2
REMARK    2  A    between atoms: _2  and  _3
REMARK    3  A    between atoms: _2  and  _5
REMARK    4  A    between atoms: _11  and  _12
REMARK    5  A    between atoms: _12  and  _13
REMARK    6  A    between atoms: _12  and  _15
REMARK    7  A    between atoms: _15  and  _16
REMARK    8  A    between atoms: _15  and  _17
REMARK    9  A    between atoms: _25  and  _26
REMARK   10  A    between atoms: _26  and  _27
REMARK   11  A    between atoms: _26  and  _29
REMARK   12  A    between atoms: _29  and  _30
REMARK   13  A    between atoms: _29  and  _31
REMARK   14  A    between atoms: _41  and  _42
REMARK   15  A    between atoms: _42  and  _43
REMARK   16  A    between atoms: _42  and  _45
REMARK   17  A    between atoms: _45  and  _46
REMARK   18  A    between atoms: _46  and  _47
REMARK   19  A    between atoms: _58  and  _59
REMARK   20  A    between atoms: _59  and  _60
REMARK   21  A    between atoms: _59  and  _62
REMARK   22  A    between atoms: _62  and  _63
REMARK   23  A    between atoms: _69  and  _70
REMARK   24  A    between atoms: _70  and  _71
REMARK   25  A    between atoms: _70  and  _73
REMARK   26  A    between atoms: _73  and  _74
REMARK   27  A    between atoms: _74  and  _75
REMARK   28  A    between atoms: _75  and  _76
REMARK   29  A    between atoms: _76  and  _77
REMARK   30  A    between atoms: _91  and  _92
REMARK   31  A    between atoms: _92  and  _93
REMARK   32  A    between atoms: _92  and  _95
REMARK   33  A    between atoms: _95  and  _96
REMARK   34  A    between atoms: _96  and  _97
REMARK   35  A    between atoms: _97  and  _98
REMARK   36  A    between atoms: _108  and  _109
REMARK   37  A    between atoms: _109  and  _110
REMARK   38  A    between atoms: _109  and  _112
REMARK   39  A    between atoms: _112  and  _113
REMARK                            x       y       z     vdW  Elec       q    Type
REMARK                         _______ _______ _______ _____ _____    ______ ____
ROOT
ATOM      1  C   GLN A   4       4.656  -1.808  28.264  0.00  0.00    +0.234 C 
ATOM      2  O   GLN A   4       4.039  -1.048  29.011  0.00  0.00    -0.274 OA
ATOM      3  N   SER A   5       5.626  -1.360  27.410  0.00  0.00    -0.301 N 
ATOM      4  H   SER A   5       6.137  -1.994  26.800  0.00  0.00    +0.150 HD
ENDROOT
BRANCH   1   5
ATOM      5  CA  GLN A   4       4.344  -3.314  28.193  0.00  0.00    +0.159 C 
BRANCH   5   7
ATOM      6  C   VAL A   3       3.550  -4.724  26.302  0.00  0.00    +0.234 C 
ATOM      7  N   GLN A   4       4.227  -3.625  26.771  0.00  0.00    -0.302 N 
ATOM      8  H   GLN A   4       4.657  -2.969  26.122  0.00  0.00    +0.150 HD
ATOM      9  O   VAL A   3       3.040  -5.551  27.057  0.00  0.00    -0.274 OA
BRANCH   6  10
ATOM     10  CA  VAL A   3       3.451  -4.828  24.762  0.00  0.00    +0.161 C 
BRANCH  10  13
ATOM     11  C   THR A   2       5.291  -4.053  23.267  0.00  0.00    +0.236 C 
ATOM     12  O   THR A   2       4.565  -3.262  22.666  0.00  0.00    -0.274 OA
ATOM     13  N   VAL A   3       4.835  -4.854  24.287  0.00  0.00    -0.302 N 
ATOM     14  H   VAL A   3       5.478  -5.458  24.791  0.00  0.00    +0.150 HD
BRANCH  11  15
ATOM     15  CA  THR A   2       6.786  -4.194  22.949  0.00  0.00    +0.187 C 
BRANCH  15  17
ATOM     16  C   ALA A   1       7.580  -4.025  25.295  0.00  0.00    +0.230 C 
ATOM     17  N   THR A   2       7.410  -4.761  24.147  0.00  0.00    -0.301 N 
ATOM     18  H   THR A   2       7.836  -5.676  24.058  0.00  0.00    +0.150 HD
ATOM     19  O   ALA A   1       7.097  -2.906  25.460  0.00  0.00    -0.274 OA
BRANCH  16  20
ATOM     20  CA  ALA A   1       8.405  -4.735  26.387  0.00  0.00    +0.135 C 
ATOM     21  CB  ALA A   1       9.800  -5.040  25.860  0.00  0.00    +0.033 C 
BRANCH  20  22
ATOM     22  N   ALA A   1       7.728  -5.982  26.790  0.00  0.00    -0.320 NA
ATOM     23  H1  ALA A   1       6.786  -5.969  26.395  0.00  0.00    +0.119 HD
ATOM     24  H2  ALA A   1       8.186  -6.748  26.287  0.00  0.00    +0.119 HD
ENDBRANCH  20  22
ENDBRANCH  16  20
ENDBRANCH  15  17
BRANCH  15  25
ATOM     25  CB  THR A   2       6.965  -5.123  21.725  0.00  0.00    +0.141 C 
ATOM     26  CG2 THR A   2       6.957  -6.601  22.104  0.00  0.00    +0.040 C 
BRANCH  25  27
ATOM     27  OG1 THR A   2       5.908  -4.909  20.782  0.00  0.00    -0.390 OA
ATOM     28  HG1 THR A   2       5.108  -5.349  21.116  0.00  0.00    +0.210 HD
ENDBRANCH  25  27
ENDBRANCH  15  25
ENDBRANCH  11  15
ENDBRANCH  10  13
BRANCH  10  29
ATOM     29  CB  VAL A   3       2.678  -6.089  24.305  0.00  0.00    +0.012 C 
ATOM     30  CG2 VAL A   3       1.898  -5.867  23.004  0.00  0.00    +0.009 C 
ATOM     31  CG1 VAL A   3       3.621  -7.285  24.108  0.00  0.00    +0.009 C 
ENDBRANCH  10  29
ENDBRANCH   6  10
ENDBRANCH   5   7
BRANCH   5  32
ATOM     32  CB  GLN A   4       5.467  -4.141  28.834  0.00  0.00    +0.041 C 
BRANCH  32  33
ATOM     33  CG  GLN A   4       4.955  -5.243  29.761  0.00  0.00    +0.098 C 
BRANCH  33  34
ATOM     34  CD  GLN A   4       5.710  -6.546  29.599  0.00  0.00    +0.211 C 
ATOM     35  OE1 GLN A   4       6.574  -6.915  30.388  0.00  0.00    -0.276 OA
ATOM     36  NE2 GLN A   4       5.346  -7.321  28.543  0.00  0.00    -0.329 N 
ATOM     37 HE21 GLN A   4       4.571  -7.105  27.931  0.00  0.00    +0.145 HD
ATOM     38 HE22 GLN A   4       5.808  -8.214  28.428  0.00  0.00    +0.145 HD
ENDBRANCH  33  34
ENDBRANCH  32  33
ENDBRANCH   5  32
ENDBRANCH   1   5
BRANCH   3  39
ATOM     39  CA  SER A   5       5.873   0.068  27.209  0.00  0.00    +0.184 C 
BRANCH  39  40
ATOM     40  C   SER A   5       5.341   0.443  25.817  0.00  0.00    +0.236 C 
ATOM     41  N   LYS A   6       5.106   1.783  25.623  0.00  0.00    -0.302 N 
ATOM     42  H   LYS A   6       5.233   2.449  26.381  0.00  0.00    +0.150 HD
ATOM     43  O   SER A   5       5.117  -0.400  24.947  0.00  0.00    -0.274 OA
BRANCH  41  44
ATOM     44  CA  LYS A   6       4.646   2.318  24.348  0.00  0.00    +0.159 C 
BRANCH  44  45
ATOM     45  C   LYS A   6       5.908   2.765  23.592  0.00  0.00    +0.234 C 
ATOM     46  O   LYS A   6       6.218   3.950  23.483  0.00  0.00    -0.274 OA
ATOM     47  N   MET A   7       6.631   1.751  23.021  0.00  0.00    -0.302 N 
ATOM     48  H   MET A   7       6.336   0.784  23.127  0.00  0.00    +0.150 HD
BRANCH  47  49
ATOM     49  CA  MET A   7       7.790   1.985  22.164  0.00  0.00    +0.160 C 
BRANCH  49  50
ATOM     50  C   MET A   7       7.812   0.823  21.145  0.00  0.00    +0.234 C 
ATOM     51  N   SER A   8       6.588   0.455  20.643  0.00  0.00    -0.302 N 
ATOM     52  H   SER A   8       5.775   1.051  20.808  0.00  0.00    +0.150 HD
ATOM     53  O   MET A   7       8.853   0.245  20.830  0.00  0.00    -0.274 OA
BRANCH  51  54
ATOM     54  CA  SER A   8       6.448  -0.478  19.521  0.00  0.00    +0.161 C 
BRANCH  54  55
ATOM     55  C   SER A   8       5.811   0.284  18.369  0.00  0.00    +0.247 C 
ATOM     56  O   SER A   8       5.726  -0.184  17.233  0.00  0.00    -0.299 OA
ENDBRANCH  54  55
BRANCH  54  57
ATOM     57  CB  SER A   8       5.602  -1.709  19.863  0.00  0.00    +0.185 C 
BRANCH  57  58
ATOM     58  OG  SER A   8       5.448  -2.572  18.737  0.00  0.00    -0.393 OA
ATOM     59  H   SER A   8       6.273  -2.516  18.221  0.00  0.00    +0.209 HD
ENDBRANCH  57  58
ENDBRANCH  54  57
ENDBRANCH  51  54
ENDBRANCH  49  50
BRANCH  49  60
ATOM     60  CB  MET A   7       9.092   2.044  22.970  0.00  0.00    +0.042 C 
BRANCH  60  61
ATOM     61  CG  MET A   7       8.984   1.298  24.300  0.00  0.00    +0.071 C 
BRANCH  61  62
ATOM     62  SD  MET A   7      10.475   0.291  24.564  0.00  0.00    -0.164 S 
ATOM     63  CE  MET A   7       9.816  -1.308  24.029  0.00  0.00    +0.084 C 
ENDBRANCH  61  62
ENDBRANCH  60  61
ENDBRANCH  49  60
ENDBRANCH  47  49
ENDBRANCH  44  45
BRANCH  44  64
ATOM     64  CB  LYS A   6       3.682   3.497  24.560  0.00  0.00    +0.032 C 
BRANCH  64  65
ATOM     65  CG  LYS A   6       2.330   3.319  23.860  0.00  0.00    +0.007 C 
BRANCH  65  66
ATOM     66  CD  LYS A   6       2.304   4.033  22.507  0.00  0.00    +0.051 C 
BRANCH  66  67
ATOM     67  CE  LYS A   6       2.308   3.030  21.361  0.00  0.00    +0.127 C 
BRANCH  67  68
ATOM     68  NZ  LYS A   6       3.688   2.903  20.835  0.00  0.00    +0.219 N 
ATOM     69  HZ1 LYS A   6       4.214   3.781  20.934  0.00  0.00    +0.199 HD
ATOM     70  HZ2 LYS A   6       3.683   2.658  19.836  0.00  0.00    +0.199 HD
ATOM     71  HZ3 LYS A   6       4.215   2.169  21.327  0.00  0.00    +0.199 HD
ENDBRANCH  67  68
ENDBRANCH  66  67
ENDBRANCH  65  66
ENDBRANCH  64  65
ENDBRANCH  44  64
ENDBRANCH  41  44
ENDBRANCH  39  40
BRANCH  39  72
ATOM     72  CB  SER A   5       7.353   0.432  27.359  0.00  0.00    +0.187 C 
BRANCH  72  73
ATOM     73  OG  SER A   5       8.194  -0.710  27.190  0.00  0.00    -0.393 OA
ATOM     74  H   SER A   5       8.946  -0.596  27.798  0.00  0.00    +0.209 HD
ENDBRANCH  72  73
ENDBRANCH  39  72
ENDBRANCH   3  39
TORSDOF 34
ENDMDL
MODEL 2
REMARK VINA RESULT:      -6.0      2.405      5.637
REMARK  Name = ATVQSKMS-mmff94.pdb
REMARK  39 active torsions:
REMARK  status: ('A' for Active; 'I' for Inactive)
REMARK    1  A    between atoms: _1  and  _2
REMARK    2  A    between atoms: _2  and  _3
REMARK    3  A    between atoms: _2  and  _5
REMARK    4  A    between atoms: _11  and  _12
REMARK    5  A    between atoms: _12  and  _13
REMARK    6  A    between atoms: _12  and  _15
REMARK    7  A    between atoms: _15  and  _16
REMARK    8  A    between atoms: _15  and  _17
REMARK    9  A    between atoms: _25  and  _26
REMARK   10  A    between atoms: _26  and  _27
REMARK   11  A    between atoms: _26  and  _29
REMARK   12  A    between atoms: _29  and  _30
REMARK   13  A    between atoms: _29  and  _31
REMARK   14  A    between atoms: _41  and  _42
REMARK   15  A    between atoms: _42  and  _43
REMARK   16  A    between atoms: _42  and  _45
REMARK   17  A    between atoms: _45  and  _46
REMARK   18  A    between atoms: _46  and  _47
REMARK   19  A    between atoms: _58  and  _59
REMARK   20  A    between atoms: _59  and  _60
REMARK   21  A    between atoms: _59  and  _62
REMARK   22  A    between atoms: _62  and  _63
REMARK   23  A    between atoms: _69  and  _70
REMARK   24  A    between atoms: _70  and  _71
REMARK   25  A    between atoms: _70  and  _73
REMARK   26  A    between atoms: _73  and  _74
REMARK   27  A    between atoms: _74  and  _75
REMARK   28  A    between atoms: _75  and  _76
REMARK   29  A    between atoms: _76  and  _77
REMARK   30  A    between atoms: _91  and  _92
REMARK   31  A    between atoms: _92  and  _93
REMARK   32  A    between atoms: _92  and  _95
REMARK   33  A    between atoms: _95  and  _96
REMARK   34  A    between atoms: _96  and  _97
REMARK   35  A    between atoms: _97  and  _98
REMARK   36  A    between atoms: _108  and  _109
REMARK   37  A    between atoms: _109  and  _110
REMARK   38  A    between atoms: _109  and  _112
REMARK   39  A    between atoms: _112  and  _113
REMARK                            x       y       z     vdW  Elec       q    Type
REMARK                         _______ _______ _______ _____ _____    ______ ____
ROOT
ATOM      1  C   GLN A   4       8.089  -1.252  22.085  0.00  0.00    +0.234 C 
ATOM      2  O   GLN A   4       8.639  -1.941  21.225  0.00  0.00    -0.274 OA
ATOM      3  N   SER A   5       7.097  -0.361  21.779  0.00  0.00    -0.301 N 
ATOM      4  H   SER A   5       6.642   0.200  22.494  0.00  0.00    +0.150 HD
ENDROOT
BRANCH   1   5
ATOM      5  CA  GLN A   4       8.515  -1.299  23.564  0.00  0.00    +0.159 C 
BRANCH   5   7
ATOM      6  C   VAL A   3       6.463  -0.465  24.699  0.00  0.00    +0.234 C 
ATOM      7  N   GLN A   4       7.282  -1.499  24.322  0.00  0.00    -0.302 N 
ATOM      8  H   GLN A   4       7.035  -2.461  24.547  0.00  0.00    +0.150 HD
ATOM      9  O   VAL A   3       6.743   0.711  24.466  0.00  0.00    -0.274 OA
BRANCH   6  10
ATOM     10  CA  VAL A   3       5.154  -0.886  25.408  0.00  0.00    +0.161 C 
BRANCH  10  13
ATOM     11  C   THR A   2       3.928  -3.057  25.409  0.00  0.00    +0.236 C 
ATOM     12  O   THR A   2       2.847  -2.529  25.669  0.00  0.00    -0.274 OA
ATOM     13  N   VAL A   3       5.093  -2.341  25.273  0.00  0.00    -0.302 N 
ATOM     14  H   VAL A   3       5.955  -2.810  25.009  0.00  0.00    +0.150 HD
BRANCH  11  15
ATOM     15  CA  THR A   2       4.064  -4.569  25.183  0.00  0.00    +0.187 C 
BRANCH  15  17
ATOM     16  C   ALA A   1       4.615  -5.316  22.880  0.00  0.00    +0.230 C 
ATOM     17  N   THR A   2       4.997  -4.736  24.066  0.00  0.00    -0.301 N 
ATOM     18  H   THR A   2       5.973  -4.531  24.245  0.00  0.00    +0.150 HD
ATOM     19  O   ALA A   1       3.449  -5.597  22.609  0.00  0.00    -0.274 OA
BRANCH  16  20
ATOM     20  CA  ALA A   1       5.773  -5.559  21.891  0.00  0.00    +0.135 C 
ATOM     21  CB  ALA A   1       6.506  -6.840  22.263  0.00  0.00    +0.033 C 
BRANCH  20  22
ATOM     22  N   ALA A   1       6.700  -4.412  21.920  0.00  0.00    -0.320 NA
ATOM     23  H1  ALA A   1       7.580  -4.710  21.494  0.00  0.00    +0.119 HD
ATOM     24  H2  ALA A   1       6.339  -3.717  21.259  0.00  0.00    +0.119 HD
ENDBRANCH  20  22
ENDBRANCH  16  20
ENDBRANCH  15  17
BRANCH  15  25
ATOM     25  CB  THR A   2       4.600  -5.234  26.473  0.00  0.00    +0.141 C 
ATOM     26  CG2 THR A   2       4.765  -6.745  26.328  0.00  0.00    +0.040 C 
BRANCH  25  27
ATOM     27  OG1 THR A   2       5.878  -4.688  26.819  0.00  0.00    -0.390 OA
ATOM     28  HG1 THR A   2       6.457  -4.752  26.041  0.00  0.00    +0.210 HD
ENDBRANCH  25  27
ENDBRANCH  15  25
ENDBRANCH  11  15
ENDBRANCH  10  13
BRANCH  10  29
ATOM     29  CB  VAL A   3       5.126  -0.458  26.896  0.00  0.00    +0.012 C 
ATOM     30  CG2 VAL A   3       6.529  -0.250  27.478  0.00  0.00    +0.009 C 
ATOM     31  CG1 VAL A   3       4.322   0.836  27.092  0.00  0.00    +0.009 C 
ENDBRANCH  10  29
ENDBRANCH   6  10
ENDBRANCH   5   7
BRANCH   5  32
ATOM     32  CB  GLN A   4       9.496  -2.451  23.819  0.00  0.00    +0.041 C 
BRANCH  32  33
ATOM     33  CG  GLN A   4       9.327  -3.099  25.194  0.00  0.00    +0.098 C 
BRANCH  33  34
ATOM     34  CD  GLN A   4       9.001  -4.575  25.114  0.00  0.00    +0.211 C 
ATOM     35  OE1 GLN A   4       7.925  -4.995  24.698  0.00  0.00    -0.276 OA
ATOM     36  NE2 GLN A   4       9.990  -5.428  25.490  0.00  0.00    -0.329 N 
ATOM     37 HE21 GLN A   4      10.923  -5.128  25.739  0.00  0.00    +0.145 HD
ATOM     38 HE22 GLN A   4       9.814  -6.422  25.414  0.00  0.00    +0.145 HD
ENDBRANCH  33  34
ENDBRANCH  32  33
ENDBRANCH   5  32
ENDBRANCH   1   5
BRANCH   3  39
ATOM     39  CA  SER A   5       6.746  -0.049  20.393  0.00  0.00    +0.184 C 
BRANCH  39  40
ATOM     40  C   SER A   5       5.984   1.286  20.393  0.00  0.00    +0.236 C 
ATOM     41  N   LYS A   6       6.040   1.991  21.570  0.00  0.00    -0.302 N 
ATOM     42  H   LYS A   6       6.514   1.608  22.385  0.00  0.00    +0.150 HD
ATOM     43  O   SER A   5       5.348   1.682  19.414  0.00  0.00    -0.274 OA
BRANCH  41  44
ATOM     44  CA  LYS A   6       5.414   3.297  21.728  0.00  0.00    +0.159 C 
BRANCH  44  45
ATOM     45  C   LYS A   6       6.335   4.102  22.660  0.00  0.00    +0.234 C 
ATOM     46  O   LYS A   6       6.921   5.116  22.284  0.00  0.00    -0.274 OA
ATOM     47  N   MET A   7       6.483   3.581  23.919  0.00  0.00    -0.302 N 
ATOM     48  H   MET A   7       5.989   2.735  24.189  0.00  0.00    +0.150 HD
BRANCH  47  49
ATOM     49  CA  MET A   7       7.409   4.133  24.905  0.00  0.00    +0.160 C 
BRANCH  49  50
ATOM     50  C   MET A   7       8.829   3.853  24.364  0.00  0.00    +0.234 C 
ATOM     51  N   SER A   8       9.209   2.534  24.357  0.00  0.00    -0.302 N 
ATOM     52  H   SER A   8       8.511   1.808  24.524  0.00  0.00    +0.150 HD
ATOM     53  O   MET A   7       9.582   4.757  23.994  0.00  0.00    -0.274 OA
BRANCH  51  54
ATOM     54  CA  SER A   8      10.429   2.072  23.689  0.00  0.00    +0.161 C 
BRANCH  54  55
ATOM     55  C   SER A   8      10.062   1.719  22.256  0.00  0.00    +0.247 C 
ATOM     56  O   SER A   8       9.015   2.096  21.729  0.00  0.00    -0.299 OA
ENDBRANCH  54  55
BRANCH  54  57
ATOM     57  CB  SER A   8      11.069   0.861  24.376  0.00  0.00    +0.185 C 
BRANCH  57  58
ATOM     58  OG  SER A   8      10.412   0.543  25.603  0.00  0.00    -0.393 OA
ATOM     59  H   SER A   8      10.551  -0.409  25.761  0.00  0.00    +0.209 HD
ENDBRANCH  57  58
ENDBRANCH  54  57
ENDBRANCH  51  54
ENDBRANCH  49  50
BRANCH  49  60
ATOM     60  CB  MET A   7       7.206   3.507  26.289  0.00  0.00    +0.042 C 
BRANCH  60  61
ATOM     61  CG  MET A   7       7.053   4.561  27.385  0.00  0.00    +0.071 C 
BRANCH  61  62
ATOM     62  SD  MET A   7       5.512   4.272  28.307  0.00  0.00    -0.164 S 
ATOM     63  CE  MET A   7       4.334   4.675  26.992  0.00  0.00    +0.084 C 
ENDBRANCH  61  62
ENDBRANCH  60  61
ENDBRANCH  49  60
ENDBRANCH  47  49
ENDBRANCH  44  45
BRANCH  44  64
ATOM     64  CB  LYS A   6       4.003   3.165  22.324  0.00  0.00    +0.032 C 
BRANCH  64  65
ATOM     65  CG  LYS A   6       2.994   4.159  21.741  0.00  0.00    +0.007 C 
BRANCH  65  66
ATOM     66  CD  LYS A   6       1.774   3.441  21.159  0.00  0.00    +0.051 C 
BRANCH  66  67
ATOM     67  CE  LYS A   6       2.179   2.512  20.024  0.00  0.00    +0.127 C 
BRANCH  67  68
ATOM     68  NZ  LYS A   6       2.767   3.317  18.926  0.00  0.00    +0.219 N 
ATOM     69  HZ1 LYS A   6       2.079   3.969  18.524  0.00  0.00    +0.199 HD
ATOM     70  HZ2 LYS A   6       3.103   2.715  18.163  0.00  0.00    +0.199 HD
ATOM     71  HZ3 LYS A   6       3.568   3.874  19.252  0.00  0.00    +0.199 HD
ENDBRANCH  67  68
ENDBRANCH  66  67
ENDBRANCH  65  66
ENDBRANCH  64  65
ENDBRANCH  44  64
ENDBRANCH  41  44
ENDBRANCH  39  40
BRANCH  39  72
ATOM     72  CB  SER A   5       5.926  -1.162  19.733  0.00  0.00    +0.187 C 
BRANCH  72  73
ATOM     73  OG  SER A   5       5.768  -0.936  18.332  0.00  0.00    -0.393 OA
ATOM     74  H   SER A   5       6.422  -0.258  18.082  0.00  0.00    +0.209 HD
ENDBRANCH  72  73
ENDBRANCH  39  72
ENDBRANCH   3  39
TORSDOF 34
ENDMDL
MODEL 3
REMARK VINA RESULT:      -5.9      2.289      5.874
REMARK  Name = ATVQSKMS-mmff94.pdb
REMARK  39 active torsions:
REMARK  status: ('A' for Active; 'I' for Inactive)
REMARK    1  A    between atoms: _1  and  _2
REMARK    2  A    between atoms: _2  and  _3
REMARK    3  A    between atoms: _2  and  _5
REMARK    4  A    between atoms: _11  and  _12
REMARK    5  A    between atoms: _12  and  _13
REMARK    6  A    between atoms: _12  and  _15
REMARK    7  A    between atoms: _15  and  _16
REMARK    8  A    between atoms: _15  and  _17
REMARK    9  A    between atoms: _25  and  _26
REMARK   10  A    between atoms: _26  and  _27
REMARK   11  A    between atoms: _26  and  _29
REMARK   12  A    between atoms: _29  and  _30
REMARK   13  A    between atoms: _29  and  _31
REMARK   14  A    between atoms: _41  and  _42
REMARK   15  A    between atoms: _42  and  _43
REMARK   16  A    between atoms: _42  and  _45
REMARK   17  A    between atoms: _45  and  _46
REMARK   18  A    between atoms: _46  and  _47
REMARK   19  A    between atoms: _58  and  _59
REMARK   20  A    between atoms: _59  and  _60
REMARK   21  A    between atoms: _59  and  _62
REMARK   22  A    between atoms: _62  and  _63
REMARK   23  A    between atoms: _69  and  _70
REMARK   24  A    between atoms: _70  and  _71
REMARK   25  A    between atoms: _70  and  _73
REMARK   26  A    between atoms: _73  and  _74
REMARK   27  A    between atoms: _74  and  _75
REMARK   28  A    between atoms: _75  and  _76
REMARK   29  A    between atoms: _76  and  _77
REMARK   30  A    between atoms: _91  and  _92
REMARK   31  A    between atoms: _92  and  _93
REMARK   32  A    between atoms: _92  and  _95
REMARK   33  A    between atoms: _95  and  _96
REMARK   34  A    between atoms: _96  and  _97
REMARK   35  A    between atoms: _97  and  _98
REMARK   36  A    between atoms: _108  and  _109
REMARK   37  A    between atoms: _109  and  _110
REMARK   38  A    between atoms: _109  and  _112
REMARK   39  A    between atoms: _112  and  _113
REMARK                            x       y       z     vdW  Elec       q    Type
REMARK                         _______ _______ _______ _____ _____    ______ ____
ROOT
ATOM      1  C   GLN A   4       7.926  -0.859  21.920  0.00  0.00    +0.234 C 
ATOM      2  O   GLN A   4       8.950  -0.841  21.238  0.00  0.00    -0.274 OA
ATOM      3  N   SER A   5       6.697  -0.564  21.396  0.00  0.00    -0.301 N 
ATOM      4  H   SER A   5       5.853  -0.587  21.962  0.00  0.00    +0.150 HD
ENDROOT
BRANCH   1   5
ATOM      5  CA  GLN A   4       7.955  -1.160  23.430  0.00  0.00    +0.159 C 
BRANCH   5   7
ATOM      6  C   VAL A   3       8.033  -3.639  23.641  0.00  0.00    +0.234 C 
ATOM      7  N   GLN A   4       7.321  -2.467  23.583  0.00  0.00    -0.302 N 
ATOM      8  H   GLN A   4       6.306  -2.476  23.671  0.00  0.00    +0.150 HD
ATOM      9  O   VAL A   3       9.258  -3.668  23.514  0.00  0.00    -0.274 OA
BRANCH   6  10
ATOM     10  CA  VAL A   3       7.192  -4.909  23.907  0.00  0.00    +0.161 C 
BRANCH  10  13
ATOM     11  C   THR A   2       6.904  -5.015  26.381  0.00  0.00    +0.236 C 
ATOM     12  O   THR A   2       7.956  -5.632  26.549  0.00  0.00    -0.274 OA
ATOM     13  N   VAL A   3       6.455  -4.633  25.140  0.00  0.00    -0.302 N 
ATOM     14  H   VAL A   3       5.606  -4.082  25.049  0.00  0.00    +0.150 HD
BRANCH  11  15
ATOM     15  CA  THR A   2       6.011  -4.589  27.555  0.00  0.00    +0.187 C 
BRANCH  15  17
ATOM     16  C   ALA A   1       4.037  -3.089  27.666  0.00  0.00    +0.230 C 
ATOM     17  N   THR A   2       4.821  -3.973  26.964  0.00  0.00    -0.301 N 
ATOM     18  H   THR A   2       4.517  -4.324  26.063  0.00  0.00    +0.150 HD
ATOM     19  O   ALA A   1       4.345  -2.635  28.766  0.00  0.00    -0.274 OA
BRANCH  16  20
ATOM     20  CA  ALA A   1       2.739  -2.680  26.941  0.00  0.00    +0.135 C 
ATOM     21  CB  ALA A   1       2.631  -3.428  25.619  0.00  0.00    +0.033 C 
BRANCH  20  22
ATOM     22  N   ALA A   1       2.738  -1.224  26.705  0.00  0.00    -0.320 NA
ATOM     23  H1  ALA A   1       2.957  -1.066  25.719  0.00  0.00    +0.119 HD
ATOM     24  H2  ALA A   1       1.767  -0.907  26.786  0.00  0.00    +0.119 HD
ENDBRANCH  20  22
ENDBRANCH  16  20
ENDBRANCH  15  17
BRANCH  15  25
ATOM     25  CB  THR A   2       5.646  -5.833  28.399  0.00  0.00    +0.141 C 
ATOM     26  CG2 THR A   2       4.822  -6.851  27.615  0.00  0.00    +0.040 C 
BRANCH  25  27
ATOM     27  OG1 THR A   2       6.834  -6.491  28.854  0.00  0.00    -0.390 OA
ATOM     28  HG1 THR A   2       7.215  -6.983  28.106  0.00  0.00    +0.210 HD
ENDBRANCH  25  27
ENDBRANCH  15  25
ENDBRANCH  11  15
ENDBRANCH  10  13
BRANCH  10  29
ATOM     29  CB  VAL A   3       6.229  -5.233  22.738  0.00  0.00    +0.012 C 
ATOM     30  CG2 VAL A   3       6.923  -5.971  21.587  0.00  0.00    +0.009 C 
ATOM     31  CG1 VAL A   3       5.039  -6.081  23.210  0.00  0.00    +0.009 C 
ENDBRANCH  10  29
ENDBRANCH   6  10
ENDBRANCH   5   7
BRANCH   5  32
ATOM     32  CB  GLN A   4       9.396  -1.197  23.957  0.00  0.00    +0.041 C 
BRANCH  32  33
ATOM     33  CG  GLN A   4       9.604  -0.346  25.211  0.00  0.00    +0.098 C 
BRANCH  33  34
ATOM     34  CD  GLN A   4       8.769  -0.812  26.385  0.00  0.00    +0.211 C 
ATOM     35  OE1 GLN A   4       8.599  -1.999  26.648  0.00  0.00    -0.276 OA
ATOM     36  NE2 GLN A   4       8.242   0.165  27.170  0.00  0.00    -0.329 N 
ATOM     37 HE21 GLN A   4       8.442   1.148  27.050  0.00  0.00    +0.145 HD
ATOM     38 HE22 GLN A   4       7.708  -0.117  27.983  0.00  0.00    +0.145 HD
ENDBRANCH  33  34
ENDBRANCH  32  33
ENDBRANCH   5  32
ENDBRANCH   1   5
BRANCH   3  39
ATOM     39  CA  SER A   5       6.547  -0.046  20.036  0.00  0.00    +0.184 C 
BRANCH  39  40
ATOM     40  C   SER A   5       5.788   1.288  20.124  0.00  0.00    +0.236 C 
ATOM     41  N   LYS A   6       5.834   1.906  21.350  0.00  0.00    -0.302 N 
ATOM     42  H   LYS A   6       6.299   1.464  22.139  0.00  0.00    +0.150 HD
ATOM     43  O   SER A   5       5.163   1.755  19.170  0.00  0.00    -0.274 OA
BRANCH  41  44
ATOM     44  CA  LYS A   6       5.209   3.199  21.596  0.00  0.00    +0.159 C 
BRANCH  44  45
ATOM     45  C   LYS A   6       6.243   4.031  22.373  0.00  0.00    +0.234 C 
ATOM     46  O   LYS A   6       7.116   4.685  21.805  0.00  0.00    -0.274 OA
ATOM     47  N   MET A   7       6.141   3.955  23.737  0.00  0.00    -0.302 N 
ATOM     48  H   MET A   7       5.410   3.395  24.169  0.00  0.00    +0.150 HD
BRANCH  47  49
ATOM     49  CA  MET A   7       7.104   4.575  24.643  0.00  0.00    +0.160 C 
BRANCH  49  50
ATOM     50  C   MET A   7       8.330   3.635  24.675  0.00  0.00    +0.234 C 
ATOM     51  N   SER A   8       9.240   3.816  23.663  0.00  0.00    -0.302 N 
ATOM     52  H   SER A   8       9.174   4.643  23.068  0.00  0.00    +0.150 HD
ATOM     53  O   MET A   7       8.465   2.758  25.532  0.00  0.00    -0.274 OA
BRANCH  51  54
ATOM     54  CA  SER A   8      10.551   3.160  23.659  0.00  0.00    +0.161 C 
BRANCH  54  55
ATOM     55  C   SER A   8      11.582   4.200  23.248  0.00  0.00    +0.247 C 
ATOM     56  O   SER A   8      11.642   5.314  23.768  0.00  0.00    -0.299 OA
ENDBRANCH  54  55
BRANCH  54  57
ATOM     57  CB  SER A   8      10.619   1.957  22.713  0.00  0.00    +0.185 C 
BRANCH  57  58
ATOM     58  OG  SER A   8       9.844   2.170  21.533  0.00  0.00    -0.393 OA
ATOM     59  H   SER A   8      10.109   3.036  21.172  0.00  0.00    +0.209 HD
ENDBRANCH  57  58
ENDBRANCH  54  57
ENDBRANCH  51  54
ENDBRANCH  49  50
BRANCH  49  60
ATOM     60  CB  MET A   7       6.519   4.775  26.046  0.00  0.00    +0.042 C 
BRANCH  60  61
ATOM     61  CG  MET A   7       5.081   4.266  26.151  0.00  0.00    +0.071 C 
BRANCH  61  62
ATOM     62  SD  MET A   7       5.011   2.851  27.292  0.00  0.00    -0.164 S 
ATOM     63  CE  MET A   7       5.092   1.518  26.069  0.00  0.00    +0.084 C 
ENDBRANCH  61  62
ENDBRANCH  60  61
ENDBRANCH  49  60
ENDBRANCH  47  49
ENDBRANCH  44  45
BRANCH  44  64
ATOM     64  CB  LYS A   6       3.909   3.040  22.401  0.00  0.00    +0.032 C 
BRANCH  64  65
ATOM     65  CG  LYS A   6       2.682   3.648  21.713  0.00  0.00    +0.007 C 
BRANCH  65  66
ATOM     66  CD  LYS A   6       1.955   2.614  20.851  0.00  0.00    +0.051 C 
BRANCH  66  67
ATOM     67  CE  LYS A   6       1.561   3.207  19.505  0.00  0.00    +0.127 C 
BRANCH  67  68
ATOM     68  NZ  LYS A   6       2.772   3.330  18.658  0.00  0.00    +0.219 N 
ATOM     69  HZ1 LYS A   6       3.550   2.764  19.024  0.00  0.00    +0.199 HD
ATOM     70  HZ2 LYS A   6       3.095   4.305  18.612  0.00  0.00    +0.199 HD
ATOM     71  HZ3 LYS A   6       2.592   3.021  17.693  0.00  0.00    +0.199 HD
ENDBRANCH  67  68
ENDBRANCH  66  67
ENDBRANCH  65  66
ENDBRANCH  64  65
ENDBRANCH  44  64
ENDBRANCH  41  44
ENDBRANCH  39  40
BRANCH  39  72
ATOM     72  CB  SER A   5       5.835  -1.035  19.108  0.00  0.00    +0.187 C 
BRANCH  72  73
ATOM     73  OG  SER A   5       5.896  -0.613  17.746  0.00  0.00    -0.393 OA
ATOM     74  H   SER A   5       4.979  -0.444  17.463  0.00  0.00    +0.209 HD
ENDBRANCH  72  73
ENDBRANCH  39  72
ENDBRANCH   3  39
TORSDOF 34
ENDMDL
MODEL 4
REMARK VINA RESULT:      -5.8      1.501      1.993
REMARK  Name = ATVQSKMS-mmff94.pdb
REMARK  39 active torsions:
REMARK  status: ('A' for Active; 'I' for Inactive)
REMARK    1  A    between atoms: _1  and  _2
REMARK    2  A    between atoms: _2  and  _3
REMARK    3  A    between atoms: _2  and  _5
REMARK    4  A    between atoms: _11  and  _12
REMARK    5  A    between atoms: _12  and  _13
REMARK    6  A    between atoms: _12  and  _15
REMARK    7  A    between atoms: _15  and  _16
REMARK    8  A    between atoms: _15  and  _17
REMARK    9  A    between atoms: _25  and  _26
REMARK   10  A    between atoms: _26  and  _27
REMARK   11  A    between atoms: _26  and  _29
REMARK   12  A    between atoms: _29  and  _30
REMARK   13  A    between atoms: _29  and  _31
REMARK   14  A    between atoms: _41  and  _42
REMARK   15  A    between atoms: _42  and  _43
REMARK   16  A    between atoms: _42  and  _45
REMARK   17  A    between atoms: _45  and  _46
REMARK   18  A    between atoms: _46  and  _47
REMARK   19  A    between atoms: _58  and  _59
REMARK   20  A    between atoms: _59  and  _60
REMARK   21  A    between atoms: _59  and  _62
REMARK   22  A    between atoms: _62  and  _63
REMARK   23  A    between atoms: _69  and  _70
REMARK   24  A    between atoms: _70  and  _71
REMARK   25  A    between atoms: _70  and  _73
REMARK   26  A    between atoms: _73  and  _74
REMARK   27  A    between atoms: _74  and  _75
REMARK   28  A    between atoms: _75  and  _76
REMARK   29  A    between atoms: _76  and  _77
REMARK   30  A    between atoms: _91  and  _92
REMARK   31  A    between atoms: _92  and  _93
REMARK   32  A    between atoms: _92  and  _95
REMARK   33  A    between atoms: _95  and  _96
REMARK   34  A    between atoms: _96  and  _97
REMARK   35  A    between atoms: _97  and  _98
REMARK   36  A    between atoms: _108  and  _109
REMARK   37  A    between atoms: _109  and  _110
REMARK   38  A    between atoms: _109  and  _112
REMARK   39  A    between atoms: _112  and  _113
REMARK                            x       y       z     vdW  Elec       q    Type
REMARK                         _______ _______ _______ _____ _____    ______ ____
ROOT
ATOM      1  C   GLN A   4       5.327  -2.128  27.755  0.00  0.00    +0.234 C 
ATOM      2  O   GLN A   4       4.966  -1.123  28.367  0.00  0.00    -0.274 OA
ATOM      3  N   SER A   5       6.357  -2.100  26.854  0.00  0.00    -0.301 N 
ATOM      4  H   SER A   5       6.655  -2.935  26.356  0.00  0.00    +0.150 HD
ENDROOT
BRANCH   1   5
ATOM      5  CA  GLN A   4       4.612  -3.482  27.913  0.00  0.00    +0.159 C 
BRANCH   5   7
ATOM      6  C   VAL A   3       3.282  -4.587  26.123  0.00  0.00    +0.234 C 
ATOM      7  N   GLN A   4       4.444  -3.999  26.557  0.00  0.00    -0.302 N 
ATOM      8  H   GLN A   4       5.232  -3.885  25.923  0.00  0.00    +0.150 HD
ATOM      9  O   VAL A   3       2.318  -4.764  26.869  0.00  0.00    -0.274 OA
BRANCH   6  10
ATOM     10  CA  VAL A   3       3.262  -4.980  24.627  0.00  0.00    +0.161 C 
BRANCH  10  13
ATOM     11  C   THR A   2       5.083  -4.182  23.122  0.00  0.00    +0.236 C 
ATOM     12  O   THR A   2       4.316  -3.510  22.433  0.00  0.00    -0.274 OA
ATOM     13  N   VAL A   3       4.659  -4.928  24.196  0.00  0.00    -0.302 N 
ATOM     14  H   VAL A   3       5.331  -5.430  24.769  0.00  0.00    +0.150 HD
BRANCH  11  15
ATOM     15  CA  THR A   2       6.595  -4.221  22.861  0.00  0.00    +0.187 C 
BRANCH  15  17
ATOM     16  C   ALA A   1       8.520  -4.623  24.376  0.00  0.00    +0.230 C 
ATOM     17  N   THR A   2       7.202  -4.833  24.045  0.00  0.00    -0.301 N 
ATOM     18  H   THR A   2       6.653  -5.525  24.542  0.00  0.00    +0.150 HD
ATOM     19  O   ALA A   1       9.239  -3.806  23.806  0.00  0.00    -0.274 OA
BRANCH  16  20
ATOM     20  CA  ALA A   1       9.021  -5.482  25.554  0.00  0.00    +0.135 C 
ATOM     21  CB  ALA A   1       8.466  -4.935  26.862  0.00  0.00    +0.033 C 
BRANCH  20  22
ATOM     22  N   ALA A   1      10.496  -5.474  25.583  0.00  0.00    -0.320 NA
ATOM     23  H1  ALA A   1      10.817  -6.441  25.496  0.00  0.00    +0.119 HD
ATOM     24  H2  ALA A   1      10.811  -5.040  24.710  0.00  0.00    +0.119 HD
ENDBRANCH  20  22
ENDBRANCH  16  20
ENDBRANCH  15  17
BRANCH  15  25
ATOM     25  CB  THR A   2       6.873  -5.056  21.588  0.00  0.00    +0.141 C 
ATOM     26  CG2 THR A   2       6.742  -6.557  21.831  0.00  0.00    +0.040 C 
BRANCH  25  27
ATOM     27  OG1 THR A   2       5.952  -4.700  20.550  0.00  0.00    -0.390 OA
ATOM     28  HG1 THR A   2       6.239  -5.130  19.727  0.00  0.00    +0.210 HD
ENDBRANCH  25  27
ENDBRANCH  15  25
ENDBRANCH  11  15
ENDBRANCH  10  13
BRANCH  10  29
ATOM     29  CB  VAL A   3       2.655  -6.386  24.396  0.00  0.00    +0.012 C 
ATOM     30  CG2 VAL A   3       2.185  -6.598  22.952  0.00  0.00    +0.009 C 
ATOM     31  CG1 VAL A   3       3.658  -7.495  24.747  0.00  0.00    +0.009 C 
ENDBRANCH  10  29
ENDBRANCH   6  10
ENDBRANCH   5   7
BRANCH   5  32
ATOM     32  CB  GLN A   4       5.448  -4.452  28.758  0.00  0.00    +0.041 C 
BRANCH  32  33
ATOM     33  CG  GLN A   4       4.608  -5.506  29.480  0.00  0.00    +0.098 C 
BRANCH  33  34
ATOM     34  CD  GLN A   4       4.632  -6.853  28.787  0.00  0.00    +0.211 C 
ATOM     35  OE1 GLN A   4       5.665  -7.494  28.618  0.00  0.00    -0.276 OA
ATOM     36  NE2 GLN A   4       3.427  -7.345  28.393  0.00  0.00    -0.329 N 
ATOM     37 HE21 GLN A   4       2.545  -6.900  28.605  0.00  0.00    +0.145 HD
ATOM     38 HE22 GLN A   4       3.408  -8.259  27.959  0.00  0.00    +0.145 HD
ENDBRANCH  33  34
ENDBRANCH  32  33
ENDBRANCH   5  32
ENDBRANCH   1   5
BRANCH   3  39
ATOM     39  CA  SER A   5       6.980  -0.843  26.437  0.00  0.00    +0.184 C 
BRANCH  39  40
ATOM     40  C   SER A   5       6.051  -0.178  25.409  0.00  0.00    +0.236 C 
ATOM     41  N   LYS A   6       6.312   1.147  25.158  0.00  0.00    -0.302 N 
ATOM     42  H   LYS A   6       7.039   1.641  25.670  0.00  0.00    +0.150 HD
ATOM     43  O   SER A   5       5.124  -0.785  24.869  0.00  0.00    -0.274 OA
BRANCH  41  44
ATOM     44  CA  LYS A   6       5.559   1.918  24.177  0.00  0.00    +0.159 C 
BRANCH  44  45
ATOM     45  C   LYS A   6       6.549   2.259  23.052  0.00  0.00    +0.234 C 
ATOM     46  O   LYS A   6       6.346   3.177  22.259  0.00  0.00    -0.274 OA
ATOM     47  N   MET A   7       7.646   1.441  22.977  0.00  0.00    -0.302 N 
ATOM     48  H   MET A   7       7.773   0.686  23.647  0.00  0.00    +0.150 HD
BRANCH  47  49
ATOM     49  CA  MET A   7       8.634   1.530  21.905  0.00  0.00    +0.160 C 
BRANCH  49  50
ATOM     50  C   MET A   7       8.226   0.470  20.857  0.00  0.00    +0.234 C 
ATOM     51  N   SER A   8       7.047   0.714  20.198  0.00  0.00    -0.302 N 
ATOM     52  H   SER A   8       6.602   1.629  20.283  0.00  0.00    +0.150 HD
ATOM     53  O   MET A   7       8.897  -0.543  20.652  0.00  0.00    -0.274 OA
BRANCH  51  54
ATOM     54  CA  SER A   8       6.620  -0.070  19.035  0.00  0.00    +0.161 C 
BRANCH  54  55
ATOM     55  C   SER A   8       5.829   0.854  18.124  0.00  0.00    +0.247 C 
ATOM     56  O   SER A   8       6.335   1.423  17.157  0.00  0.00    -0.299 OA
ENDBRANCH  54  55
BRANCH  54  57
ATOM     57  CB  SER A   8       5.768  -1.287  19.411  0.00  0.00    +0.185 C 
BRANCH  57  58
ATOM     58  OG  SER A   8       5.907  -1.622  20.792  0.00  0.00    -0.393 OA
ATOM     59  H   SER A   8       5.209  -2.271  20.998  0.00  0.00    +0.209 HD
ENDBRANCH  57  58
ENDBRANCH  54  57
ENDBRANCH  51  54
ENDBRANCH  49  50
BRANCH  49  60
ATOM     60  CB  MET A   7      10.057   1.286  22.421  0.00  0.00    +0.042 C 
BRANCH  60  61
ATOM     61  CG  MET A   7      10.318   1.986  23.754  0.00  0.00    +0.071 C 
BRANCH  61  62
ATOM     62  SD  MET A   7      10.994   3.647  23.454  0.00  0.00    -0.164 S 
ATOM     63  CE  MET A   7       9.528   4.616  23.891  0.00  0.00    +0.084 C 
ENDBRANCH  61  62
ENDBRANCH  60  61
ENDBRANCH  49  60
ENDBRANCH  47  49
ENDBRANCH  44  45
BRANCH  44  64
ATOM     64  CB  LYS A   6       4.977   3.194  24.807  0.00  0.00    +0.032 C 
BRANCH  64  65
ATOM     65  CG  LYS A   6       3.445   3.221  24.836  0.00  0.00    +0.007 C 
BRANCH  65  66
ATOM     66  CD  LYS A   6       2.911   3.132  26.267  0.00  0.00    +0.051 C 
BRANCH  66  67
ATOM     67  CE  LYS A   6       2.964   1.700  26.781  0.00  0.00    +0.127 C 
BRANCH  67  68
ATOM     68  NZ  LYS A   6       4.025   1.595  27.812  0.00  0.00    +0.219 N 
ATOM     69  HZ1 LYS A   6       4.430   0.650  27.844  0.00  0.00    +0.199 HD
ATOM     70  HZ2 LYS A   6       3.654   1.803  28.748  0.00  0.00    +0.199 HD
ATOM     71  HZ3 LYS A   6       4.794   2.255  27.633  0.00  0.00    +0.199 HD
ENDBRANCH  67  68
ENDBRANCH  66  67
ENDBRANCH  65  66
ENDBRANCH  64  65
ENDBRANCH  44  64
ENDBRANCH  41  44
ENDBRANCH  39  40
BRANCH  39  72
ATOM     72  CB  SER A   5       8.388  -1.049  25.870  0.00  0.00    +0.187 C 
BRANCH  72  73
ATOM     73  OG  SER A   5       9.256   0.029  26.219  0.00  0.00    -0.393 OA
ATOM     74  H   SER A   5       8.736   0.848  26.128  0.00  0.00    +0.209 HD
ENDBRANCH  72  73
ENDBRANCH  39  72
ENDBRANCH   3  39
TORSDOF 34
ENDMDL
MODEL 5
REMARK VINA RESULT:      -5.8      2.261      5.738
REMARK  Name = ATVQSKMS-mmff94.pdb
REMARK  39 active torsions:
REMARK  status: ('A' for Active; 'I' for Inactive)
REMARK    1  A    between atoms: _1  and  _2
REMARK    2  A    between atoms: _2  and  _3
REMARK    3  A    between atoms: _2  and  _5
REMARK    4  A    between atoms: _11  and  _12
REMARK    5  A    between atoms: _12  and  _13
REMARK    6  A    between atoms: _12  and  _15
REMARK    7  A    between atoms: _15  and  _16
REMARK    8  A    between atoms: _15  and  _17
REMARK    9  A    between atoms: _25  and  _26
REMARK   10  A    between atoms: _26  and  _27
REMARK   11  A    between atoms: _26  and  _29
REMARK   12  A    between atoms: _29  and  _30
REMARK   13  A    between atoms: _29  and  _31
REMARK   14  A    between atoms: _41  and  _42
REMARK   15  A    between atoms: _42  and  _43
REMARK   16  A    between atoms: _42  and  _45
REMARK   17  A    between atoms: _45  and  _46
REMARK   18  A    between atoms: _46  and  _47
REMARK   19  A    between atoms: _58  and  _59
REMARK   20  A    between atoms: _59  and  _60
REMARK   21  A    between atoms: _59  and  _62
REMARK   22  A    between atoms: _62  and  _63
REMARK   23  A    between atoms: _69  and  _70
REMARK   24  A    between atoms: _70  and  _71
REMARK   25  A    between atoms: _70  and  _73
REMARK   26  A    between atoms: _73  and  _74
REMARK   27  A    between atoms: _74  and  _75
REMARK   28  A    between atoms: _75  and  _76
REMARK   29  A    between atoms: _76  and  _77
REMARK   30  A    between atoms: _91  and  _92
REMARK   31  A    between atoms: _92  and  _93
REMARK   32  A    between atoms: _92  and  _95
REMARK   33  A    between atoms: _95  and  _96
REMARK   34  A    between atoms: _96  and  _97
REMARK   35  A    between atoms: _97  and  _98
REMARK   36  A    between atoms: _108  and  _109
REMARK   37  A    between atoms: _109  and  _110
REMARK   38  A    between atoms: _109  and  _112
REMARK   39  A    between atoms: _112  and  _113
REMARK                            x       y       z     vdW  Elec       q    Type
REMARK                         _______ _______ _______ _____ _____    ______ ____
ROOT
ATOM      1  C   GLN A   4       6.801  -1.684  21.754  0.00  0.00    +0.234 C 
ATOM      2  O   GLN A   4       5.937  -2.358  21.193  0.00  0.00    -0.274 OA
ATOM      3  N   SER A   5       7.232  -0.487  21.249  0.00  0.00    -0.301 N 
ATOM      4  H   SER A   5       7.942   0.068  21.720  0.00  0.00    +0.150 HD
ENDROOT
BRANCH   1   5
ATOM      5  CA  GLN A   4       7.506  -2.162  23.036  0.00  0.00    +0.159 C 
BRANCH   5   7
ATOM      6  C   VAL A   3       6.294  -0.609  24.557  0.00  0.00    +0.234 C 
ATOM      7  N   GLN A   4       6.574  -1.882  24.126  0.00  0.00    -0.302 N 
ATOM      8  H   GLN A   4       6.112  -2.683  24.550  0.00  0.00    +0.150 HD
ATOM      9  O   VAL A   3       6.853   0.381  24.084  0.00  0.00    -0.274 OA
BRANCH   6  10
ATOM     10  CA  VAL A   3       5.207  -0.509  25.653  0.00  0.00    +0.161 C 
BRANCH  10  13
ATOM     11  C   THR A   2       3.926  -2.513  26.404  0.00  0.00    +0.236 C 
ATOM     12  O   THR A   2       2.840  -2.022  26.097  0.00  0.00    -0.274 OA
ATOM     13  N   VAL A   3       5.118  -1.850  26.231  0.00  0.00    -0.302 N 
ATOM     14  H   VAL A   3       5.997  -2.310  26.451  0.00  0.00    +0.150 HD
BRANCH  11  15
ATOM     15  CA  THR A   2       4.048  -3.929  26.981  0.00  0.00    +0.187 C 
BRANCH  15  17
ATOM     16  C   ALA A   1       3.672  -5.941  25.576  0.00  0.00    +0.230 C 
ATOM     17  N   THR A   2       4.392  -4.805  25.858  0.00  0.00    -0.301 N 
ATOM     18  H   THR A   2       5.262  -4.616  25.374  0.00  0.00    +0.150 HD
ATOM     19  O   ALA A   1       2.616  -6.230  26.135  0.00  0.00    -0.274 OA
BRANCH  16  20
ATOM     20  CA  ALA A   1       4.284  -6.819  24.467  0.00  0.00    +0.135 C 
ATOM     21  CB  ALA A   1       4.540  -5.976  23.225  0.00  0.00    +0.033 C 
BRANCH  20  22
ATOM     22  N   ALA A   1       3.367  -7.930  24.149  0.00  0.00    -0.320 NA
ATOM     23  H1  ALA A   1       3.184  -7.908  23.144  0.00  0.00    +0.119 HD
ATOM     24  H2  ALA A   1       3.895  -8.800  24.275  0.00  0.00    +0.119 HD
ENDBRANCH  20  22
ENDBRANCH  16  20
ENDBRANCH  15  17
BRANCH  15  25
ATOM     25  CB  THR A   2       5.149  -3.946  28.069  0.00  0.00    +0.141 C 
ATOM     26  CG2 THR A   2       4.836  -4.918  29.204  0.00  0.00    +0.040 C 
BRANCH  25  27
ATOM     27  OG1 THR A   2       6.404  -4.333  27.498  0.00  0.00    -0.390 OA
ATOM     28  HG1 THR A   2       6.383  -4.127  26.548  0.00  0.00    +0.210 HD
ENDBRANCH  25  27
ENDBRANCH  15  25
ENDBRANCH  11  15
ENDBRANCH  10  13
BRANCH  10  29
ATOM     29  CB  VAL A   3       5.554   0.546  26.732  0.00  0.00    +0.012 C 
ATOM     30  CG2 VAL A   3       4.332   0.981  27.549  0.00  0.00    +0.009 C 
ATOM     31  CG1 VAL A   3       6.625   0.024  27.702  0.00  0.00    +0.009 C 
ENDBRANCH  10  29
ENDBRANCH   6  10
ENDBRANCH   5   7
BRANCH   5  32
ATOM     32  CB  GLN A   4       7.816  -3.664  22.968  0.00  0.00    +0.041 C 
BRANCH  32  33
ATOM     33  CG  GLN A   4       7.639  -4.381  24.307  0.00  0.00    +0.098 C 
BRANCH  33  34
ATOM     34  CD  GLN A   4       8.958  -4.719  24.972  0.00  0.00    +0.211 C 
ATOM     35  OE1 GLN A   4      10.031  -4.271  24.581  0.00  0.00    -0.276 OA
ATOM     36  NE2 GLN A   4       8.887  -5.523  26.066  0.00  0.00    -0.329 N 
ATOM     37 HE21 GLN A   4       8.018  -5.829  26.481  0.00  0.00    +0.145 HD
ATOM     38 HE22 GLN A   4       9.749  -5.737  26.553  0.00  0.00    +0.145 HD
ENDBRANCH  33  34
ENDBRANCH  32  33
ENDBRANCH   5  32
ENDBRANCH   1   5
BRANCH   3  39
ATOM     39  CA  SER A   5       6.816  -0.016  19.928  0.00  0.00    +0.184 C 
BRANCH  39  40
ATOM     40  C   SER A   5       6.026   1.288  20.123  0.00  0.00    +0.236 C 
ATOM     41  N   LYS A   6       6.246   1.930  21.316  0.00  0.00    -0.302 N 
ATOM     42  H   LYS A   6       6.852   1.522  22.024  0.00  0.00    +0.150 HD
ATOM     43  O   SER A   5       5.234   1.711  19.279  0.00  0.00    -0.274 OA
BRANCH  41  44
ATOM     44  CA  LYS A   6       5.616   3.203  21.645  0.00  0.00    +0.159 C 
BRANCH  44  45
ATOM     45  C   LYS A   6       6.686   4.033  22.373  0.00  0.00    +0.234 C 
ATOM     46  O   LYS A   6       7.300   4.940  21.815  0.00  0.00    -0.274 OA
ATOM     47  N   MET A   7       6.928   3.658  23.669  0.00  0.00    -0.302 N 
ATOM     48  H   MET A   7       6.405   2.896  24.092  0.00  0.00    +0.150 HD
BRANCH  47  49
ATOM     49  CA  MET A   7       7.990   4.245  24.482  0.00  0.00    +0.160 C 
BRANCH  49  50
ATOM     50  C   MET A   7       9.278   3.466  24.132  0.00  0.00    +0.234 C 
ATOM     51  N   SER A   8       9.196   2.102  24.259  0.00  0.00    -0.302 N 
ATOM     52  H   SER A   8       8.284   1.662  24.389  0.00  0.00    +0.150 HD
ATOM     53  O   MET A   7      10.319   4.034  23.795  0.00  0.00    -0.274 OA
BRANCH  51  54
ATOM     54  CA  SER A   8      10.247   1.203  23.772  0.00  0.00    +0.161 C 
BRANCH  54  55
ATOM     55  C   SER A   8       9.948   0.896  22.313  0.00  0.00    +0.247 C 
ATOM     56  O   SER A   8       9.313   1.665  21.591  0.00  0.00    -0.299 OA
ENDBRANCH  54  55
BRANCH  54  57
ATOM     57  CB  SER A   8      10.341  -0.101  24.570  0.00  0.00    +0.185 C 
BRANCH  57  58
ATOM     58  OG  SER A   8       9.573  -0.039  25.772  0.00  0.00    -0.393 OA
ATOM     59  H   SER A   8       8.712  -0.456  25.581  0.00  0.00    +0.209 HD
ENDBRANCH  57  58
ENDBRANCH  54  57
ENDBRANCH  51  54
ENDBRANCH  49  50
BRANCH  49  60
ATOM     60  CB  MET A   7       7.674   4.157  25.979  0.00  0.00    +0.042 C 
BRANCH  60  61
ATOM     61  CG  MET A   7       7.601   5.535  26.638  0.00  0.00    +0.071 C 
BRANCH  61  62
ATOM     62  SD  MET A   7       6.703   5.416  28.215  0.00  0.00    -0.164 S 
ATOM     63  CE  MET A   7       6.798   3.622  28.442  0.00  0.00    +0.084 C 
ENDBRANCH  61  62
ENDBRANCH  60  61
ENDBRANCH  49  60
ENDBRANCH  47  49
ENDBRANCH  44  45
BRANCH  44  64
ATOM     64  CB  LYS A   6       4.379   2.993  22.534  0.00  0.00    +0.032 C 
BRANCH  64  65
ATOM     65  CG  LYS A   6       3.157   3.802  22.087  0.00  0.00    +0.007 C 
BRANCH  65  66
ATOM     66  CD  LYS A   6       2.149   2.926  21.340  0.00  0.00    +0.051 C 
BRANCH  66  67
ATOM     67  CE  LYS A   6       1.770   3.550  20.004  0.00  0.00    +0.127 C 
BRANCH  67  68
ATOM     68  NZ  LYS A   6       2.855   3.291  19.025  0.00  0.00    +0.219 N 
ATOM     69  HZ1 LYS A   6       3.550   4.049  19.021  0.00  0.00    +0.199 HD
ATOM     70  HZ2 LYS A   6       2.481   3.211  18.071  0.00  0.00    +0.199 HD
ATOM     71  HZ3 LYS A   6       3.352   2.415  19.234  0.00  0.00    +0.199 HD
ENDBRANCH  67  68
ENDBRANCH  66  67
ENDBRANCH  65  66
ENDBRANCH  64  65
ENDBRANCH  44  64
ENDBRANCH  41  44
ENDBRANCH  39  40
BRANCH  39  72
ATOM     72  CB  SER A   5       5.993  -1.061  19.168  0.00  0.00    +0.187 C 
BRANCH  72  73
ATOM     73  OG  SER A   5       5.847  -0.713  17.791  0.00  0.00    -0.393 OA
ATOM     74  H   SER A   5       6.050   0.238  17.719  0.00  0.00    +0.209 HD
ENDBRANCH  72  73
ENDBRANCH  39  72
ENDBRANCH   3  39
TORSDOF 34
ENDMDL
MODEL 6
REMARK VINA RESULT:      -5.8      1.675      2.697
REMARK  Name = ATVQSKMS-mmff94.pdb
REMARK  39 active torsions:
REMARK  status: ('A' for Active; 'I' for Inactive)
REMARK    1  A    between atoms: _1  and  _2
REMARK    2  A    between atoms: _2  and  _3
REMARK    3  A    between atoms: _2  and  _5
REMARK    4  A    between atoms: _11  and  _12
REMARK    5  A    between atoms: _12  and  _13
REMARK    6  A    between atoms: _12  and  _15
REMARK    7  A    between atoms: _15  and  _16
REMARK    8  A    between atoms: _15  and  _17
REMARK    9  A    between atoms: _25  and  _26
REMARK   10  A    between atoms: _26  and  _27
REMARK   11  A    between atoms: _26  and  _29
REMARK   12  A    between atoms: _29  and  _30
REMARK   13  A    between atoms: _29  and  _31
REMARK   14  A    between atoms: _41  and  _42
REMARK   15  A    between atoms: _42  and  _43
REMARK   16  A    between atoms: _42  and  _45
REMARK   17  A    between atoms: _45  and  _46
REMARK   18  A    between atoms: _46  and  _47
REMARK   19  A    between atoms: _58  and  _59
REMARK   20  A    between atoms: _59  and  _60
REMARK   21  A    between atoms: _59  and  _62
REMARK   22  A    between atoms: _62  and  _63
REMARK   23  A    between atoms: _69  and  _70
REMARK   24  A    between atoms: _70  and  _71
REMARK   25  A    between atoms: _70  and  _73
REMARK   26  A    between atoms: _73  and  _74
REMARK   27  A    between atoms: _74  and  _75
REMARK   28  A    between atoms: _75  and  _76
REMARK   29  A    between atoms: _76  and  _77
REMARK   30  A    between atoms: _91  and  _92
REMARK   31  A    between atoms: _92  and  _93
REMARK   32  A    between atoms: _92  and  _95
REMARK   33  A    between atoms: _95  and  _96
REMARK   34  A    between atoms: _96  and  _97
REMARK   35  A    between atoms: _97  and  _98
REMARK   36  A    between atoms: _108  and  _109
REMARK   37  A    between atoms: _109  and  _110
REMARK   38  A    between atoms: _109  and  _112
REMARK   39  A    between atoms: _112  and  _113
REMARK                            x       y       z     vdW  Elec       q    Type
REMARK                         _______ _______ _______ _____ _____    ______ ____
ROOT
ATOM      1  C   GLN A   4       4.734  -1.901  28.114  0.00  0.00    +0.234 C 
ATOM      2  O   GLN A   4       4.362  -1.335  29.142  0.00  0.00    -0.274 OA
ATOM      3  N   SER A   5       5.459  -1.256  27.150  0.00  0.00    -0.301 N 
ATOM      4  H   SER A   5       5.769  -1.730  26.305  0.00  0.00    +0.150 HD
ENDROOT
BRANCH   1   5
ATOM      5  CA  GLN A   4       4.363  -3.363  27.807  0.00  0.00    +0.159 C 
BRANCH   5   7
ATOM      6  C   VAL A   3       4.095  -3.223  25.337  0.00  0.00    +0.234 C 
ATOM      7  N   GLN A   4       4.816  -3.606  26.440  0.00  0.00    -0.302 N 
ATOM      8  H   GLN A   4       5.720  -4.062  26.332  0.00  0.00    +0.150 HD
ATOM      9  O   VAL A   3       2.988  -2.692  25.430  0.00  0.00    -0.274 OA
BRANCH   6  10
ATOM     10  CA  VAL A   3       4.787  -3.477  23.977  0.00  0.00    +0.161 C 
BRANCH  10  13
ATOM     11  C   THR A   2       6.732  -1.917  24.026  0.00  0.00    +0.236 C 
ATOM     12  O   THR A   2       6.060  -0.955  23.655  0.00  0.00    -0.274 OA
ATOM     13  N   VAL A   3       6.200  -3.172  24.200  0.00  0.00    -0.302 N 
ATOM     14  H   VAL A   3       6.778  -3.929  24.555  0.00  0.00    +0.150 HD
BRANCH  11  15
ATOM     15  CA  THR A   2       8.225  -1.791  24.358  0.00  0.00    +0.187 C 
BRANCH  15  17
ATOM     16  C   ALA A   1       8.477  -3.426  26.209  0.00  0.00    +0.230 C 
ATOM     17  N   THR A   2       8.640  -3.093  24.886  0.00  0.00    -0.301 N 
ATOM     18  H   THR A   2       9.176  -3.693  24.269  0.00  0.00    +0.150 HD
ATOM     19  O   ALA A   1       7.847  -2.737  27.008  0.00  0.00    -0.274 OA
BRANCH  16  20
ATOM     20  CA  ALA A   1       9.127  -4.766  26.610  0.00  0.00    +0.135 C 
ATOM     21  CB  ALA A   1       9.812  -5.387  25.401  0.00  0.00    +0.033 C 
BRANCH  20  22
ATOM     22  N   ALA A   1       8.097  -5.680  27.138  0.00  0.00    -0.320 NA
ATOM     23  H1  ALA A   1       7.202  -5.421  26.718  0.00  0.00    +0.119 HD
ATOM     24  H2  ALA A   1       8.286  -6.606  26.742  0.00  0.00    +0.119 HD
ENDBRANCH  20  22
ENDBRANCH  16  20
ENDBRANCH  15  17
BRANCH  15  25
ATOM     25  CB  THR A   2       9.007  -1.425  23.074  0.00  0.00    +0.141 C 
ATOM     26  CG2 THR A   2      10.465  -1.873  23.129  0.00  0.00    +0.040 C 
BRANCH  25  27
ATOM     27  OG1 THR A   2       8.403  -2.045  21.932  0.00  0.00    -0.390 OA
ATOM     28  HG1 THR A   2       8.041  -1.345  21.362  0.00  0.00    +0.210 HD
ENDBRANCH  25  27
ENDBRANCH  15  25
ENDBRANCH  11  15
ENDBRANCH  10  13
BRANCH  10  29
ATOM     29  CB  VAL A   3       4.597  -4.932  23.483  0.00  0.00    +0.012 C 
ATOM     30  CG2 VAL A   3       3.131  -5.271  23.190  0.00  0.00    +0.009 C 
ATOM     31  CG1 VAL A   3       5.421  -5.206  22.216  0.00  0.00    +0.009 C 
ENDBRANCH  10  29
ENDBRANCH   6  10
ENDBRANCH   5   7
BRANCH   5  32
ATOM     32  CB  GLN A   4       5.056  -4.324  28.783  0.00  0.00    +0.041 C 
BRANCH  32  33
ATOM     33  CG  GLN A   4       4.380  -5.693  28.869  0.00  0.00    +0.098 C 
BRANCH  33  34
ATOM     34  CD  GLN A   4       5.225  -6.805  28.285  0.00  0.00    +0.211 C 
ATOM     35  OE1 GLN A   4       6.125  -7.354  28.913  0.00  0.00    -0.276 OA
ATOM     36  NE2 GLN A   4       4.904  -7.202  27.025  0.00  0.00    -0.329 N 
ATOM     37 HE21 GLN A   4       4.107  -6.850  26.513  0.00  0.00    +0.145 HD
ATOM     38 HE22 GLN A   4       5.429  -7.968  26.621  0.00  0.00    +0.145 HD
ENDBRANCH  33  34
ENDBRANCH  32  33
ENDBRANCH   5  32
ENDBRANCH   1   5
BRANCH   3  39
ATOM     39  CA  SER A   5       5.692   0.188  27.201  0.00  0.00    +0.184 C 
BRANCH  39  40
ATOM     40  C   SER A   5       4.758   0.850  26.176  0.00  0.00    +0.236 C 
ATOM     41  N   LYS A   6       5.365   1.736  25.320  0.00  0.00    -0.302 N 
ATOM     42  H   LYS A   6       6.353   1.959  25.415  0.00  0.00    +0.150 HD
ATOM     43  O   SER A   5       3.547   0.621  26.143  0.00  0.00    -0.274 OA
BRANCH  41  44
ATOM     44  CA  LYS A   6       4.637   2.417  24.257  0.00  0.00    +0.159 C 
BRANCH  44  45
ATOM     45  C   LYS A   6       5.693   2.857  23.230  0.00  0.00    +0.234 C 
ATOM     46  O   LYS A   6       5.713   3.993  22.760  0.00  0.00    -0.274 OA
ATOM     47  N   MET A   7       6.578   1.880  22.854  0.00  0.00    -0.302 N 
ATOM     48  H   MET A   7       6.522   0.950  23.260  0.00  0.00    +0.150 HD
BRANCH  47  49
ATOM     49  CA  MET A   7       7.574   2.071  21.803  0.00  0.00    +0.160 C 
BRANCH  49  50
ATOM     50  C   MET A   7       7.262   1.015  20.720  0.00  0.00    +0.234 C 
ATOM     51  N   SER A   8       5.930   0.830  20.440  0.00  0.00    -0.302 N 
ATOM     52  H   SER A   8       5.243   1.493  20.802  0.00  0.00    +0.150 HD
ATOM     53  O   MET A   7       8.147   0.358  20.167  0.00  0.00    -0.274 OA
BRANCH  51  54
ATOM     54  CA  SER A   8       5.470   0.028  19.303  0.00  0.00    +0.161 C 
BRANCH  54  55
ATOM     55  C   SER A   8       5.938  -1.401  19.530  0.00  0.00    +0.247 C 
ATOM     56  O   SER A   8       5.763  -1.993  20.595  0.00  0.00    -0.299 OA
ENDBRANCH  54  55
BRANCH  54  57
ATOM     57  CB  SER A   8       5.992   0.539  17.956  0.00  0.00    +0.185 C 
BRANCH  57  58
ATOM     58  OG  SER A   8       5.432   1.809  17.621  0.00  0.00    -0.393 OA
ATOM     59  H   SER A   8       4.463   1.700  17.617  0.00  0.00    +0.209 HD
ENDBRANCH  57  58
ENDBRANCH  54  57
ENDBRANCH  51  54
ENDBRANCH  49  50
BRANCH  49  60
ATOM     60  CB  MET A   7       9.002   1.915  22.338  0.00  0.00    +0.042 C 
BRANCH  60  61
ATOM     61  CG  MET A   7       9.115   2.309  23.811  0.00  0.00    +0.071 C 
BRANCH  61  62
ATOM     62  SD  MET A   7       9.405   4.100  23.948  0.00  0.00    -0.164 S 
ATOM     63  CE  MET A   7       8.350   4.432  25.382  0.00  0.00    +0.084 C 
ENDBRANCH  61  62
ENDBRANCH  60  61
ENDBRANCH  49  60
ENDBRANCH  47  49
ENDBRANCH  44  45
BRANCH  44  64
ATOM     64  CB  LYS A   6       3.862   3.626  24.806  0.00  0.00    +0.032 C 
BRANCH  64  65
ATOM     65  CG  LYS A   6       4.569   4.335  25.966  0.00  0.00    +0.007 C 
BRANCH  65  66
ATOM     66  CD  LYS A   6       3.578   4.751  27.054  0.00  0.00    +0.051 C 
BRANCH  66  67
ATOM     67  CE  LYS A   6       3.538   3.725  28.177  0.00  0.00    +0.127 C 
BRANCH  67  68
ATOM     68  NZ  LYS A   6       2.352   2.853  27.994  0.00  0.00    +0.219 N 
ATOM     69  HZ1 LYS A   6       2.526   1.900  28.339  0.00  0.00    +0.199 HD
ATOM     70  HZ2 LYS A   6       2.097   2.780  27.001  0.00  0.00    +0.199 HD
ATOM     71  HZ3 LYS A   6       1.532   3.220  28.495  0.00  0.00    +0.199 HD
ENDBRANCH  67  68
ENDBRANCH  66  67
ENDBRANCH  65  66
ENDBRANCH  64  65
ENDBRANCH  44  64
ENDBRANCH  41  44
ENDBRANCH  39  40
BRANCH  39  72
ATOM     72  CB  SER A   5       7.157   0.552  26.941  0.00  0.00    +0.187 C 
BRANCH  72  73
ATOM     73  OG  SER A   5       7.498   1.807  27.532  0.00  0.00    -0.393 OA
ATOM     74  H   SER A   5       7.312   2.491  26.863  0.00  0.00    +0.209 HD
ENDBRANCH  72  73
ENDBRANCH  39  72
ENDBRANCH   3  39
TORSDOF 34
ENDMDL
MODEL 7
REMARK VINA RESULT:      -5.7      2.812      8.006
REMARK  Name = ATVQSKMS-mmff94.pdb
REMARK  39 active torsions:
REMARK  status: ('A' for Active; 'I' for Inactive)
REMARK    1  A    between atoms: _1  and  _2
REMARK    2  A    between atoms: _2  and  _3
REMARK    3  A    between atoms: _2  and  _5
REMARK    4  A    between atoms: _11  and  _12
REMARK    5  A    between atoms: _12  and  _13
REMARK    6  A    between atoms: _12  and  _15
REMARK    7  A    between atoms: _15  and  _16
REMARK    8  A    between atoms: _15  and  _17
REMARK    9  A    between atoms: _25  and  _26
REMARK   10  A    between atoms: _26  and  _27
REMARK   11  A    between atoms: _26  and  _29
REMARK   12  A    between atoms: _29  and  _30
REMARK   13  A    between atoms: _29  and  _31
REMARK   14  A    between atoms: _41  and  _42
REMARK   15  A    between atoms: _42  and  _43
REMARK   16  A    between atoms: _42  and  _45
REMARK   17  A    between atoms: _45  and  _46
REMARK   18  A    between atoms: _46  and  _47
REMARK   19  A    between atoms: _58  and  _59
REMARK   20  A    between atoms: _59  and  _60
REMARK   21  A    between atoms: _59  and  _62
REMARK   22  A    between atoms: _62  and  _63
REMARK   23  A    between atoms: _69  and  _70
REMARK   24  A    between atoms: _70  and  _71
REMARK   25  A    between atoms: _70  and  _73
REMARK   26  A    between atoms: _73  and  _74
REMARK   27  A    between atoms: _74  and  _75
REMARK   28  A    between atoms: _75  and  _76
REMARK   29  A    between atoms: _76  and  _77
REMARK   30  A    between atoms: _91  and  _92
REMARK   31  A    between atoms: _92  and  _93
REMARK   32  A    between atoms: _92  and  _95
REMARK   33  A    between atoms: _95  and  _96
REMARK   34  A    between atoms: _96  and  _97
REMARK   35  A    between atoms: _97  and  _98
REMARK   36  A    between atoms: _108  and  _109
REMARK   37  A    between atoms: _109  and  _110
REMARK   38  A    between atoms: _109  and  _112
REMARK   39  A    between atoms: _112  and  _113
REMARK                            x       y       z     vdW  Elec       q    Type
REMARK                         _______ _______ _______ _____ _____    ______ ____
ROOT
ATOM      1  C   GLN A   4       9.634  -1.725  24.136  0.00  0.00    +0.234 C 
ATOM      2  O   GLN A   4      10.262  -1.963  23.105  0.00  0.00    -0.274 OA
ATOM      3  N   SER A   5       9.223  -2.718  24.983  0.00  0.00    -0.301 N 
ATOM      4  H   SER A   5       8.709  -2.516  25.837  0.00  0.00    +0.150 HD
ENDROOT
BRANCH   1   5
ATOM      5  CA  GLN A   4       9.210  -0.296  24.523  0.00  0.00    +0.159 C 
BRANCH   5   7
ATOM      6  C   VAL A   3       7.614   0.610  26.204  0.00  0.00    +0.234 C 
ATOM      7  N   GLN A   4       8.194  -0.455  25.561  0.00  0.00    -0.302 N 
ATOM      8  H   GLN A   4       7.908  -1.407  25.780  0.00  0.00    +0.150 HD
ATOM      9  O   VAL A   3       7.952   1.773  25.982  0.00  0.00    -0.274 OA
BRANCH   6  10
ATOM     10  CA  VAL A   3       6.487   0.245  27.198  0.00  0.00    +0.161 C 
BRANCH  10  13
ATOM     11  C   THR A   2       5.820   2.140  28.675  0.00  0.00    +0.236 C 
ATOM     12  O   THR A   2       6.442   1.700  29.641  0.00  0.00    -0.274 OA
ATOM     13  N   VAL A   3       5.781   1.499  27.460  0.00  0.00    -0.302 N 
ATOM     14  H   VAL A   3       5.297   1.921  26.672  0.00  0.00    +0.150 HD
BRANCH  11  15
ATOM     15  CA  THR A   2       5.053   3.468  28.733  0.00  0.00    +0.187 C 
BRANCH  15  17
ATOM     16  C   ALA A   1       6.481   4.969  27.365  0.00  0.00    +0.230 C 
ATOM     17  N   THR A   2       5.363   4.179  27.490  0.00  0.00    -0.301 N 
ATOM     18  H   THR A   2       4.655   4.175  26.766  0.00  0.00    +0.150 HD
ATOM     19  O   ALA A   1       7.370   5.024  28.212  0.00  0.00    -0.274 OA
BRANCH  16  20
ATOM     20  CA  ALA A   1       6.548   5.766  26.047  0.00  0.00    +0.135 C 
ATOM     21  CB  ALA A   1       5.182   5.764  25.375  0.00  0.00    +0.033 C 
BRANCH  20  22
ATOM     22  N   ALA A   1       7.557   5.167  25.154  0.00  0.00    -0.320 NA
ATOM     23  H1  ALA A   1       8.481   5.432  25.502  0.00  0.00    +0.119 HD
ATOM     24  H2  ALA A   1       7.528   4.154  25.306  0.00  0.00    +0.119 HD
ENDBRANCH  20  22
ENDBRANCH  16  20
ENDBRANCH  15  17
BRANCH  15  25
ATOM     25  CB  THR A   2       3.538   3.180  28.857  0.00  0.00    +0.141 C 
ATOM     26  CG2 THR A   2       2.792   3.391  27.542  0.00  0.00    +0.040 C 
BRANCH  25  27
ATOM     27  OG1 THR A   2       3.322   1.825  29.268  0.00  0.00    -0.390 OA
ATOM     28  HG1 THR A   2       3.637   1.238  28.560  0.00  0.00    +0.210 HD
ENDBRANCH  25  27
ENDBRANCH  15  25
ENDBRANCH  11  15
ENDBRANCH  10  13
BRANCH  10  29
ATOM     29  CB  VAL A   3       5.529  -0.832  26.633  0.00  0.00    +0.012 C 
ATOM     30  CG2 VAL A   3       5.781  -2.221  27.230  0.00  0.00    +0.009 C 
ATOM     31  CG1 VAL A   3       4.059  -0.458  26.876  0.00  0.00    +0.009 C 
ENDBRANCH  10  29
ENDBRANCH   6  10
ENDBRANCH   5   7
BRANCH   5  32
ATOM     32  CB  GLN A   4      10.404   0.506  25.059  0.00  0.00    +0.041 C 
BRANCH  32  33
ATOM     33  CG  GLN A   4      11.185   1.234  23.964  0.00  0.00    +0.098 C 
BRANCH  33  34
ATOM     34  CD  GLN A   4      10.436   2.422  23.398  0.00  0.00    +0.211 C 
ATOM     35  OE1 GLN A   4       9.904   3.271  24.107  0.00  0.00    -0.276 OA
ATOM     36  NE2 GLN A   4      10.417   2.527  22.042  0.00  0.00    -0.329 N 
ATOM     37 HE21 GLN A   4      10.928   1.910  21.426  0.00  0.00    +0.145 HD
ATOM     38 HE22 GLN A   4       9.954   3.330  21.635  0.00  0.00    +0.145 HD
ENDBRANCH  33  34
ENDBRANCH  32  33
ENDBRANCH   5  32
ENDBRANCH   1   5
BRANCH   3  39
ATOM     39  CA  SER A   5       9.358  -4.132  24.631  0.00  0.00    +0.184 C 
BRANCH  39  40
ATOM     40  C   SER A   5       8.121  -4.531  23.811  0.00  0.00    +0.236 C 
ATOM     41  N   LYS A   6       7.045  -3.685  23.927  0.00  0.00    -0.302 N 
ATOM     42  H   LYS A   6       7.074  -2.889  24.560  0.00  0.00    +0.150 HD
ATOM     43  O   SER A   5       8.090  -5.550  23.119  0.00  0.00    -0.274 OA
BRANCH  41  44
ATOM     44  CA  LYS A   6       5.809  -3.887  23.182  0.00  0.00    +0.159 C 
BRANCH  44  45
ATOM     45  C   LYS A   6       5.992  -3.151  21.845  0.00  0.00    +0.234 C 
ATOM     46  O   LYS A   6       5.763  -3.692  20.765  0.00  0.00    -0.274 OA
ATOM     47  N   MET A   7       6.465  -1.869  21.949  0.00  0.00    -0.302 N 
ATOM     48  H   MET A   7       6.652  -1.461  22.861  0.00  0.00    +0.150 HD
BRANCH  47  49
ATOM     49  CA  MET A   7       6.818  -1.055  20.789  0.00  0.00    +0.160 C 
BRANCH  49  50
ATOM     50  C   MET A   7       7.317   0.296  21.349  0.00  0.00    +0.234 C 
ATOM     51  N   SER A   8       6.365   1.067  21.970  0.00  0.00    -0.302 N 
ATOM     52  H   SER A   8       5.455   0.661  22.193  0.00  0.00    +0.150 HD
ATOM     53  O   MET A   7       8.484   0.672  21.218  0.00  0.00    -0.274 OA
BRANCH  51  54
ATOM     54  CA  SER A   8       6.705   2.270  22.735  0.00  0.00    +0.161 C 
BRANCH  54  55
ATOM     55  C   SER A   8       5.596   2.495  23.751  0.00  0.00    +0.247 C 
ATOM     56  O   SER A   8       4.943   1.571  24.234  0.00  0.00    -0.299 OA
ENDBRANCH  54  55
BRANCH  54  57
ATOM     57  CB  SER A   8       6.869   3.515  21.857  0.00  0.00    +0.185 C 
BRANCH  57  58
ATOM     58  OG  SER A   8       7.935   4.346  22.317  0.00  0.00    -0.393 OA
ATOM     59  H   SER A   8       7.755   5.246  21.989  0.00  0.00    +0.209 HD
ENDBRANCH  57  58
ENDBRANCH  54  57
ENDBRANCH  51  54
ENDBRANCH  49  50
BRANCH  49  60
ATOM     60  CB  MET A   7       5.625  -0.860  19.846  0.00  0.00    +0.042 C 
BRANCH  60  61
ATOM     61  CG  MET A   7       6.060  -0.644  18.397  0.00  0.00    +0.071 C 
BRANCH  61  62
ATOM     62  SD  MET A   7       5.917   1.118  17.968  0.00  0.00    -0.164 S 
ATOM     63  CE  MET A   7       4.584   1.564  19.110  0.00  0.00    +0.084 C 
ENDBRANCH  61  62
ENDBRANCH  60  61
ENDBRANCH  49  60
ENDBRANCH  47  49
ENDBRANCH  44  45
BRANCH  44  64
ATOM     64  CB  LYS A   6       4.601  -3.335  23.957  0.00  0.00    +0.032 C 
BRANCH  64  65
ATOM     65  CG  LYS A   6       3.929  -4.370  24.866  0.00  0.00    +0.007 C 
BRANCH  65  66
ATOM     66  CD  LYS A   6       2.538  -4.745  24.354  0.00  0.00    +0.051 C 
BRANCH  66  67
ATOM     67  CE  LYS A   6       2.631  -5.688  23.163  0.00  0.00    +0.127 C 
BRANCH  67  68
ATOM     68  NZ  LYS A   6       3.461  -6.859  23.538  0.00  0.00    +0.219 N 
ATOM     69  HZ1 LYS A   6       2.935  -7.739  23.454  0.00  0.00    +0.199 HD
ATOM     70  HZ2 LYS A   6       3.787  -6.786  24.510  0.00  0.00    +0.199 HD
ATOM     71  HZ3 LYS A   6       4.295  -6.939  22.941  0.00  0.00    +0.199 HD
ENDBRANCH  67  68
ENDBRANCH  66  67
ENDBRANCH  65  66
ENDBRANCH  64  65
ENDBRANCH  44  64
ENDBRANCH  41  44
ENDBRANCH  39  40
BRANCH  39  72
ATOM     72  CB  SER A   5       9.525  -5.027  25.863  0.00  0.00    +0.187 C 
BRANCH  72  73
ATOM     73  OG  SER A   5       9.733  -6.391  25.496  0.00  0.00    -0.393 OA
ATOM     74  H   SER A   5       9.249  -6.933  26.145  0.00  0.00    +0.209 HD
ENDBRANCH  72  73
ENDBRANCH  39  72
ENDBRANCH   3  39
TORSDOF 34
ENDMDL
MODEL 8
REMARK VINA RESULT:      -5.6      2.516      9.174
REMARK  Name = ATVQSKMS-mmff94.pdb
REMARK  39 active torsions:
REMARK  status: ('A' for Active; 'I' for Inactive)
REMARK    1  A    between atoms: _1  and  _2
REMARK    2  A    between atoms: _2  and  _3
REMARK    3  A    between atoms: _2  and  _5
REMARK    4  A    between atoms: _11  and  _12
REMARK    5  A    between atoms: _12  and  _13
REMARK    6  A    between atoms: _12  and  _15
REMARK    7  A    between atoms: _15  and  _16
REMARK    8  A    between atoms: _15  and  _17
REMARK    9  A    between atoms: _25  and  _26
REMARK   10  A    between atoms: _26  and  _27
REMARK   11  A    between atoms: _26  and  _29
REMARK   12  A    between atoms: _29  and  _30
REMARK   13  A    between atoms: _29  and  _31
REMARK   14  A    between atoms: _41  and  _42
REMARK   15  A    between atoms: _42  and  _43
REMARK   16  A    between atoms: _42  and  _45
REMARK   17  A    between atoms: _45  and  _46
REMARK   18  A    between atoms: _46  and  _47
REMARK   19  A    between atoms: _58  and  _59
REMARK   20  A    between atoms: _59  and  _60
REMARK   21  A    between atoms: _59  and  _62
REMARK   22  A    between atoms: _62  and  _63
REMARK   23  A    between atoms: _69  and  _70
REMARK   24  A    between atoms: _70  and  _71
REMARK   25  A    between atoms: _70  and  _73
REMARK   26  A    between atoms: _73  and  _74
REMARK   27  A    between atoms: _74  and  _75
REMARK   28  A    between atoms: _75  and  _76
REMARK   29  A    between atoms: _76  and  _77
REMARK   30  A    between atoms: _91  and  _92
REMARK   31  A    between atoms: _92  and  _93
REMARK   32  A    between atoms: _92  and  _95
REMARK   33  A    between atoms: _95  and  _96
REMARK   34  A    between atoms: _96  and  _97
REMARK   35  A    between atoms: _97  and  _98
REMARK   36  A    between atoms: _108  and  _109
REMARK   37  A    between atoms: _109  and  _110
REMARK   38  A    between atoms: _109  and  _112
REMARK   39  A    between atoms: _112  and  _113
REMARK                            x       y       z     vdW  Elec       q    Type
REMARK                         _______ _______ _______ _____ _____    ______ ____
ROOT
ATOM      1  C   GLN A   4       6.645   1.485  20.723  0.00  0.00    +0.234 C 
ATOM      2  O   GLN A   4       5.618   2.112  20.465  0.00  0.00    -0.274 OA
ATOM      3  N   SER A   5       6.837   0.197  20.304  0.00  0.00    -0.301 N 
ATOM      4  H   SER A   5       7.691  -0.314  20.515  0.00  0.00    +0.150 HD
ENDROOT
BRANCH   1   5
ATOM      5  CA  GLN A   4       7.771   2.083  21.587  0.00  0.00    +0.159 C 
BRANCH   5   7
ATOM      6  C   VAL A   3       6.837   3.731  23.201  0.00  0.00    +0.234 C 
ATOM      7  N   GLN A   4       7.146   2.438  22.858  0.00  0.00    -0.302 N 
ATOM      8  H   GLN A   4       6.921   1.670  23.488  0.00  0.00    +0.150 HD
ATOM      9  O   VAL A   3       7.116   4.686  22.476  0.00  0.00    -0.274 OA
BRANCH   6  10
ATOM     10  CA  VAL A   3       6.088   3.895  24.544  0.00  0.00    +0.161 C 
BRANCH  10  13
ATOM     11  C   THR A   2       5.651   1.748  25.734  0.00  0.00    +0.236 C 
ATOM     12  O   THR A   2       4.462   1.732  25.419  0.00  0.00    -0.274 OA
ATOM     13  N   VAL A   3       6.507   2.757  25.362  0.00  0.00    -0.302 N 
ATOM     14  H   VAL A   3       7.494   2.707  25.601  0.00  0.00    +0.150 HD
BRANCH  11  15
ATOM     15  CA  THR A   2       6.295   0.618  26.550  0.00  0.00    +0.187 C 
BRANCH  15  17
ATOM     16  C   ALA A   1       4.698  -0.912  27.677  0.00  0.00    +0.230 C 
ATOM     17  N   THR A   2       5.342  -0.494  26.537  0.00  0.00    -0.301 N 
ATOM     18  H   THR A   2       5.273  -1.034  25.683  0.00  0.00    +0.150 HD
ATOM     19  O   ALA A   1       4.751  -0.306  28.746  0.00  0.00    -0.274 OA
BRANCH  16  20
ATOM     20  CA  ALA A   1       3.867  -2.199  27.500  0.00  0.00    +0.135 C 
ATOM     21  CB  ALA A   1       2.428  -1.839  27.157  0.00  0.00    +0.033 C 
BRANCH  20  22
ATOM     22  N   ALA A   1       3.912  -2.995  28.741  0.00  0.00    -0.320 NA
ATOM     23  H1  ALA A   1       4.706  -3.635  28.674  0.00  0.00    +0.119 HD
ATOM     24  H2  ALA A   1       4.183  -2.357  29.496  0.00  0.00    +0.119 HD
ENDBRANCH  20  22
ENDBRANCH  16  20
ENDBRANCH  15  17
BRANCH  15  25
ATOM     25  CB  THR A   2       7.640   0.218  25.899  0.00  0.00    +0.141 C 
ATOM     26  CG2 THR A   2       8.353  -0.895  26.663  0.00  0.00    +0.040 C 
BRANCH  25  27
ATOM     27  OG1 THR A   2       7.427  -0.241  24.559  0.00  0.00    -0.390 OA
ATOM     28  HG1 THR A   2       7.347   0.537  23.980  0.00  0.00    +0.210 HD
ENDBRANCH  25  27
ENDBRANCH  15  25
ENDBRANCH  11  15
ENDBRANCH  10  13
BRANCH  10  29
ATOM     29  CB  VAL A   3       6.417   5.238  25.241  0.00  0.00    +0.012 C 
ATOM     30  CG2 VAL A   3       5.353   5.649  26.266  0.00  0.00    +0.009 C 
ATOM     31  CG1 VAL A   3       7.778   5.183  25.951  0.00  0.00    +0.009 C 
ENDBRANCH  10  29
ENDBRANCH   6  10
ENDBRANCH   5   7
BRANCH   5  32
ATOM     32  CB  GLN A   4       8.897   1.063  21.808  0.00  0.00    +0.041 C 
BRANCH  32  33
ATOM     33  CG  GLN A   4      10.275   1.707  21.971  0.00  0.00    +0.098 C 
BRANCH  33  34
ATOM     34  CD  GLN A   4      10.474   2.332  23.336  0.00  0.00    +0.211 C 
ATOM     35  OE1 GLN A   4      10.569   1.667  24.363  0.00  0.00    -0.276 OA
ATOM     36  NE2 GLN A   4      10.587   3.687  23.363  0.00  0.00    -0.329 N 
ATOM     37 HE21 GLN A   4      10.619   4.263  22.532  0.00  0.00    +0.145 HD
ATOM     38 HE22 GLN A   4      10.757   4.131  24.257  0.00  0.00    +0.145 HD
ENDBRANCH  33  34
ENDBRANCH  32  33
ENDBRANCH   5  32
ENDBRANCH   1   5
BRANCH   3  39
ATOM     39  CA  SER A   5       5.766  -0.572  19.670  0.00  0.00    +0.184 C 
BRANCH  39  40
ATOM     40  C   SER A   5       5.842  -2.011  20.203  0.00  0.00    +0.236 C 
ATOM     41  N   LYS A   6       6.285  -2.130  21.498  0.00  0.00    -0.302 N 
ATOM     42  H   LYS A   6       6.585  -1.313  22.024  0.00  0.00    +0.150 HD
ATOM     43  O   SER A   5       5.551  -2.987  19.510  0.00  0.00    -0.274 OA
BRANCH  41  44
ATOM     44  CA  LYS A   6       6.373  -3.417  22.177  0.00  0.00    +0.159 C 
BRANCH  44  45
ATOM     45  C   LYS A   6       5.476  -3.306  23.420  0.00  0.00    +0.234 C 
ATOM     46  O   LYS A   6       5.479  -2.308  24.140  0.00  0.00    -0.274 OA
ATOM     47  N   MET A   7       4.711  -4.411  23.685  0.00  0.00    -0.302 N 
ATOM     48  H   MET A   7       4.745  -5.221  23.070  0.00  0.00    +0.150 HD
BRANCH  47  49
ATOM     49  CA  MET A   7       3.890  -4.542  24.885  0.00  0.00    +0.160 C 
BRANCH  49  50
ATOM     50  C   MET A   7       4.578  -5.613  25.761  0.00  0.00    +0.234 C 
ATOM     51  N   SER A   8       4.259  -5.579  27.096  0.00  0.00    -0.302 N 
ATOM     52  H   SER A   8       3.479  -5.000  27.413  0.00  0.00    +0.150 HD
ATOM     53  O   MET A   7       5.384  -6.423  25.298  0.00  0.00    -0.274 OA
BRANCH  51  54
ATOM     54  CA  SER A   8       4.653  -6.641  28.026  0.00  0.00    +0.161 C 
BRANCH  54  55
ATOM     55  C   SER A   8       3.519  -6.820  29.024  0.00  0.00    +0.247 C 
ATOM     56  O   SER A   8       2.952  -5.868  29.558  0.00  0.00    -0.299 OA
ENDBRANCH  54  55
BRANCH  54  57
ATOM     57  CB  SER A   8       5.958  -6.338  28.768  0.00  0.00    +0.185 C 
BRANCH  57  58
ATOM     58  OG  SER A   8       5.866  -5.131  29.524  0.00  0.00    -0.393 OA
ATOM     59  H   SER A   8       5.629  -4.421  28.899  0.00  0.00    +0.209 HD
ENDBRANCH  57  58
ENDBRANCH  54  57
ENDBRANCH  51  54
ENDBRANCH  49  50
BRANCH  49  60
ATOM     60  CB  MET A   7       2.448  -4.940  24.548  0.00  0.00    +0.042 C 
BRANCH  60  61
ATOM     61  CG  MET A   7       2.300  -5.404  23.099  0.00  0.00    +0.071 C 
BRANCH  61  62
ATOM     62  SD  MET A   7       1.482  -7.028  23.054  0.00  0.00    -0.164 S 
ATOM     63  CE  MET A   7       1.458  -7.365  24.833  0.00  0.00    +0.084 C 
ENDBRANCH  61  62
ENDBRANCH  60  61
ENDBRANCH  49  60
ENDBRANCH  47  49
ENDBRANCH  44  45
BRANCH  44  64
ATOM     64  CB  LYS A   6       7.825  -3.736  22.569  0.00  0.00    +0.032 C 
BRANCH  64  65
ATOM     65  CG  LYS A   6       7.947  -4.824  23.642  0.00  0.00    +0.007 C 
BRANCH  65  66
ATOM     66  CD  LYS A   6       8.885  -4.392  24.771  0.00  0.00    +0.051 C 
BRANCH  66  67
ATOM     67  CE  LYS A   6       8.192  -4.494  26.123  0.00  0.00    +0.127 C 
BRANCH  67  68
ATOM     68  NZ  LYS A   6       8.264  -5.897  26.598  0.00  0.00    +0.219 N 
ATOM     69  HZ1 LYS A   6       9.082  -6.051  27.203  0.00  0.00    +0.199 HD
ATOM     70  HZ2 LYS A   6       8.337  -6.552  25.809  0.00  0.00    +0.199 HD
ATOM     71  HZ3 LYS A   6       7.427  -6.158  27.136  0.00  0.00    +0.199 HD
ENDBRANCH  67  68
ENDBRANCH  66  67
ENDBRANCH  65  66
ENDBRANCH  64  65
ENDBRANCH  44  64
ENDBRANCH  41  44
ENDBRANCH  39  40
BRANCH  39  72
ATOM     72  CB  SER A   5       5.848  -0.537  18.140  0.00  0.00    +0.187 C 
BRANCH  72  73
ATOM     73  OG  SER A   5       6.278   0.740  17.668  0.00  0.00    -0.393 OA
ATOM     74  H   SER A   5       6.975   0.575  17.007  0.00  0.00    +0.209 HD
ENDBRANCH  72  73
ENDBRANCH  39  72
ENDBRANCH   3  39
TORSDOF 34
ENDMDL
MODEL 9
REMARK VINA RESULT:      -5.6      1.985      7.504
REMARK  Name = ATVQSKMS-mmff94.pdb
REMARK  39 active torsions:
REMARK  status: ('A' for Active; 'I' for Inactive)
REMARK    1  A    between atoms: _1  and  _2
REMARK    2  A    between atoms: _2  and  _3
REMARK    3  A    between atoms: _2  and  _5
REMARK    4  A    between atoms: _11  and  _12
REMARK    5  A    between atoms: _12  and  _13
REMARK    6  A    between atoms: _12  and  _15
REMARK    7  A    between atoms: _15  and  _16
REMARK    8  A    between atoms: _15  and  _17
REMARK    9  A    between atoms: _25  and  _26
REMARK   10  A    between atoms: _26  and  _27
REMARK   11  A    between atoms: _26  and  _29
REMARK   12  A    between atoms: _29  and  _30
REMARK   13  A    between atoms: _29  and  _31
REMARK   14  A    between atoms: _41  and  _42
REMARK   15  A    between atoms: _42  and  _43
REMARK   16  A    between atoms: _42  and  _45
REMARK   17  A    between atoms: _45  and  _46
REMARK   18  A    between atoms: _46  and  _47
REMARK   19  A    between atoms: _58  and  _59
REMARK   20  A    between atoms: _59  and  _60
REMARK   21  A    between atoms: _59  and  _62
REMARK   22  A    between atoms: _62  and  _63
REMARK   23  A    between atoms: _69  and  _70
REMARK   24  A    between atoms: _70  and  _71
REMARK   25  A    between atoms: _70  and  _73
REMARK   26  A    between atoms: _73  and  _74
REMARK   27  A    between atoms: _74  and  _75
REMARK   28  A    between atoms: _75  and  _76
REMARK   29  A    between atoms: _76  and  _77
REMARK   30  A    between atoms: _91  and  _92
REMARK   31  A    between atoms: _92  and  _93
REMARK   32  A    between atoms: _92  and  _95
REMARK   33  A    between atoms: _95  and  _96
REMARK   34  A    between atoms: _96  and  _97
REMARK   35  A    between atoms: _97  and  _98
REMARK   36  A    between atoms: _108  and  _109
REMARK   37  A    between atoms: _109  and  _110
REMARK   38  A    between atoms: _109  and  _112
REMARK   39  A    between atoms: _112  and  _113
REMARK                            x       y       z     vdW  Elec       q    Type
REMARK                         _______ _______ _______ _____ _____    ______ ____
ROOT
ATOM      1  C   GLN A   4       5.851  -4.015  22.647  0.00  0.00    +0.234 C 
ATOM      2  O   GLN A   4       5.276  -3.152  21.986  0.00  0.00    -0.274 OA
ATOM      3  N   SER A   5       5.167  -4.948  23.377  0.00  0.00    -0.301 N 
ATOM      4  H   SER A   5       5.648  -5.664  23.917  0.00  0.00    +0.150 HD
ENDROOT
BRANCH   1   5
ATOM      5  CA  GLN A   4       7.386  -4.078  22.751  0.00  0.00    +0.159 C 
BRANCH   5   7
ATOM      6  C   VAL A   3       8.935  -2.211  23.309  0.00  0.00    +0.234 C 
ATOM      7  N   GLN A   4       7.776  -2.910  23.537  0.00  0.00    -0.302 N 
ATOM      8  H   GLN A   4       7.129  -2.612  24.265  0.00  0.00    +0.150 HD
ATOM      9  O   VAL A   3       9.752  -2.558  22.456  0.00  0.00    -0.274 OA
BRANCH   6  10
ATOM     10  CA  VAL A   3       9.124  -0.946  24.179  0.00  0.00    +0.161 C 
BRANCH  10  13
ATOM     11  C   THR A   2       7.692   0.441  22.680  0.00  0.00    +0.236 C 
ATOM     12  O   THR A   2       6.699  -0.264  22.858  0.00  0.00    -0.274 OA
ATOM     13  N   VAL A   3       8.905   0.181  23.272  0.00  0.00    -0.302 N 
ATOM     14  H   VAL A   3       9.688   0.815  23.138  0.00  0.00    +0.150 HD
BRANCH  11  15
ATOM     15  CA  THR A   2       7.655   1.698  21.800  0.00  0.00    +0.187 C 
BRANCH  15  17
ATOM     16  C   ALA A   1       6.728   0.818  19.672  0.00  0.00    +0.230 C 
ATOM     17  N   THR A   2       6.556   1.504  20.851  0.00  0.00    -0.301 N 
ATOM     18  H   THR A   2       5.696   2.009  21.029  0.00  0.00    +0.150 HD
ATOM     19  O   ALA A   1       7.750   0.195  19.394  0.00  0.00    -0.274 OA
BRANCH  16  20
ATOM     20  CA  ALA A   1       5.508   0.864  18.730  0.00  0.00    +0.135 C 
ATOM     21  CB  ALA A   1       5.933   1.392  17.366  0.00  0.00    +0.033 C 
BRANCH  20  22
ATOM     22  N   ALA A   1       4.464   1.729  19.309  0.00  0.00    -0.320 NA
ATOM     23  H1  ALA A   1       3.712   1.816  18.623  0.00  0.00    +0.119 HD
ATOM     24  H2  ALA A   1       4.028   1.203  20.073  0.00  0.00    +0.119 HD
ENDBRANCH  20  22
ENDBRANCH  16  20
ENDBRANCH  15  17
BRANCH  15  25
ATOM     25  CB  THR A   2       7.420   2.941  22.692  0.00  0.00    +0.141 C 
ATOM     26  CG2 THR A   2       8.723   3.561  23.188  0.00  0.00    +0.040 C 
BRANCH  25  27
ATOM     27  OG1 THR A   2       6.708   3.947  21.962  0.00  0.00    -0.390 OA
ATOM     28  HG1 THR A   2       6.234   3.515  21.231  0.00  0.00    +0.210 HD
ENDBRANCH  25  27
ENDBRANCH  15  25
ENDBRANCH  11  15
ENDBRANCH  10  13
BRANCH  10  29
ATOM     29  CB  VAL A   3       8.142  -0.903  25.375  0.00  0.00    +0.012 C 
ATOM     30  CG2 VAL A   3       8.497  -1.916  26.469  0.00  0.00    +0.009 C 
ATOM     31  CG1 VAL A   3       8.090   0.496  26.008  0.00  0.00    +0.009 C 
ENDBRANCH  10  29
ENDBRANCH   6  10
ENDBRANCH   5   7
BRANCH   5  32
ATOM     32  CB  GLN A   4       7.840  -5.369  23.445  0.00  0.00    +0.041 C 
BRANCH  32  33
ATOM     33  CG  GLN A   4       8.466  -5.131  24.820  0.00  0.00    +0.098 C 
BRANCH  33  34
ATOM     34  CD  GLN A   4       7.565  -5.558  25.959  0.00  0.00    +0.211 C 
ATOM     35  OE1 GLN A   4       6.366  -5.775  25.811  0.00  0.00    -0.276 OA
ATOM     36  NE2 GLN A   4       8.167  -5.733  27.166  0.00  0.00    -0.329 N 
ATOM     37 HE21 GLN A   4       9.166  -5.666  27.308  0.00  0.00    +0.145 HD
ATOM     38 HE22 GLN A   4       7.597  -6.053  27.938  0.00  0.00    +0.145 HD
ENDBRANCH  33  34
ENDBRANCH  32  33
ENDBRANCH   5  32
ENDBRANCH   1   5
BRANCH   3  39
ATOM     39  CA  SER A   5       3.717  -4.874  23.552  0.00  0.00    +0.184 C 
BRANCH  39  40
ATOM     40  C   SER A   5       3.434  -4.691  25.052  0.00  0.00    +0.236 C 
ATOM     41  N   LYS A   6       3.992  -3.571  25.618  0.00  0.00    -0.302 N 
ATOM     42  H   LYS A   6       4.588  -2.954  25.074  0.00  0.00    +0.150 HD
ATOM     43  O   SER A   5       2.776  -5.505  25.703  0.00  0.00    -0.274 OA
BRANCH  41  44
ATOM     44  CA  LYS A   6       3.785  -3.219  27.018  0.00  0.00    +0.159 C 
BRANCH  44  45
ATOM     45  C   LYS A   6       3.224  -1.788  27.019  0.00  0.00    +0.234 C 
ATOM     46  O   LYS A   6       2.091  -1.530  26.617  0.00  0.00    -0.274 OA
ATOM     47  N   MET A   7       4.094  -0.825  27.460  0.00  0.00    -0.302 N 
ATOM     48  H   MET A   7       5.027  -1.078  27.776  0.00  0.00    +0.150 HD
BRANCH  47  49
ATOM     49  CA  MET A   7       3.787   0.602  27.421  0.00  0.00    +0.160 C 
BRANCH  49  50
ATOM     50  C   MET A   7       4.246   1.101  26.032  0.00  0.00    +0.234 C 
ATOM     51  N   SER A   8       3.920   2.401  25.734  0.00  0.00    -0.302 N 
ATOM     52  H   SER A   8       3.572   3.015  26.472  0.00  0.00    +0.150 HD
ATOM     53  O   MET A   7       4.835   0.371  25.232  0.00  0.00    -0.274 OA
BRANCH  51  54
ATOM     54  CA  SER A   8       4.455   3.095  24.559  0.00  0.00    +0.161 C 
BRANCH  54  55
ATOM     55  C   SER A   8       4.881   4.486  25.003  0.00  0.00    +0.247 C 
ATOM     56  O   SER A   8       5.091   5.400  24.205  0.00  0.00    -0.299 OA
ENDBRANCH  54  55
BRANCH  54  57
ATOM     57  CB  SER A   8       3.445   3.201  23.411  0.00  0.00    +0.185 C 
BRANCH  57  58
ATOM     58  OG  SER A   8       4.020   2.805  22.166  0.00  0.00    -0.393 OA
ATOM     59  H   SER A   8       4.907   2.450  22.362  0.00  0.00    +0.209 HD
ENDBRANCH  57  58
ENDBRANCH  54  57
ENDBRANCH  51  54
ENDBRANCH  49  50
BRANCH  49  60
ATOM     60  CB  MET A   7       4.491   1.367  28.548  0.00  0.00    +0.042 C 
BRANCH  60  61
ATOM     61  CG  MET A   7       5.841   0.750  28.911  0.00  0.00    +0.071 C 
BRANCH  61  62
ATOM     62  SD  MET A   7       6.992   2.055  29.440  0.00  0.00    -0.164 S 
ATOM     63  CE  MET A   7       6.678   3.243  28.110  0.00  0.00    +0.084 C 
ENDBRANCH  61  62
ENDBRANCH  60  61
ENDBRANCH  49  60
ENDBRANCH  47  49
ENDBRANCH  44  45
BRANCH  44  64
ATOM     64  CB  LYS A   6       5.102  -3.298  27.807  0.00  0.00    +0.032 C 
BRANCH  64  65
ATOM     65  CG  LYS A   6       5.157  -4.467  28.796  0.00  0.00    +0.007 C 
BRANCH  65  66
ATOM     66  CD  LYS A   6       3.797  -5.157  28.922  0.00  0.00    +0.051 C 
BRANCH  66  67
ATOM     67  CE  LYS A   6       3.955  -6.670  28.966  0.00  0.00    +0.127 C 
BRANCH  67  68
ATOM     68  NZ  LYS A   6       4.505  -7.136  27.670  0.00  0.00    +0.219 N 
ATOM     69  HZ1 LYS A   6       3.884  -6.896  26.886  0.00  0.00    +0.199 HD
ATOM     70  HZ2 LYS A   6       4.627  -8.157  27.665  0.00  0.00    +0.199 HD
ATOM     71  HZ3 LYS A   6       5.425  -6.718  27.476  0.00  0.00    +0.199 HD
ENDBRANCH  67  68
ENDBRANCH  66  67
ENDBRANCH  65  66
ENDBRANCH  64  65
ENDBRANCH  44  64
ENDBRANCH  41  44
ENDBRANCH  39  40
BRANCH  39  72
ATOM     72  CB  SER A   5       2.997  -6.105  22.993  0.00  0.00    +0.187 C 
BRANCH  72  73
ATOM     73  OG  SER A   5       3.557  -7.316  23.501  0.00  0.00    -0.393 OA
ATOM     74  H   SER A   5       2.850  -7.765  23.999  0.00  0.00    +0.209 HD
ENDBRANCH  72  73
ENDBRANCH  39  72
ENDBRANCH   3  39
TORSDOF 34
ENDMDL
MODEL 10
REMARK VINA RESULT:      -5.6      2.460      4.519
REMARK  Name = ATVQSKMS-mmff94.pdb
REMARK  39 active torsions:
REMARK  status: ('A' for Active; 'I' for Inactive)
REMARK    1  A    between atoms: _1  and  _2
REMARK    2  A    between atoms: _2  and  _3
REMARK    3  A    between atoms: _2  and  _5
REMARK    4  A    between atoms: _11  and  _12
REMARK    5  A    between atoms: _12  and  _13
REMARK    6  A    between atoms: _12  and  _15
REMARK    7  A    between atoms: _15  and  _16
REMARK    8  A    between atoms: _15  and  _17
REMARK    9  A    between atoms: _25  and  _26
REMARK   10  A    between atoms: _26  and  _27
REMARK   11  A    between atoms: _26  and  _29
REMARK   12  A    between atoms: _29  and  _30
REMARK   13  A    between atoms: _29  and  _31
REMARK   14  A    between atoms: _41  and  _42
REMARK   15  A    between atoms: _42  and  _43
REMARK   16  A    between atoms: _42  and  _45
REMARK   17  A    between atoms: _45  and  _46
REMARK   18  A    between atoms: _46  and  _47
REMARK   19  A    between atoms: _58  and  _59
REMARK   20  A    between atoms: _59  and  _60
REMARK   21  A    between atoms: _59  and  _62
REMARK   22  A    between atoms: _62  and  _63
REMARK   23  A    between atoms: _69  and  _70
REMARK   24  A    between atoms: _70  and  _71
REMARK   25  A    between atoms: _70  and  _73
REMARK   26  A    between atoms: _73  and  _74
REMARK   27  A    between atoms: _74  and  _75
REMARK   28  A    between atoms: _75  and  _76
REMARK   29  A    between atoms: _76  and  _77
REMARK   30  A    between atoms: _91  and  _92
REMARK   31  A    between atoms: _92  and  _93
REMARK   32  A    between atoms: _92  and  _95
REMARK   33  A    between atoms: _95  and  _96
REMARK   34  A    between atoms: _96  and  _97
REMARK   35  A    between atoms: _97  and  _98
REMARK   36  A    between atoms: _108  and  _109
REMARK   37  A    between atoms: _109  and  _110
REMARK   38  A    between atoms: _109  and  _112
REMARK   39  A    between atoms: _112  and  _113
REMARK                            x       y       z     vdW  Elec       q    Type
REMARK                         _______ _______ _______ _____ _____    ______ ____
ROOT
ATOM      1  C   GLN A   4       6.092   0.426  25.067  0.00  0.00    +0.234 C 
ATOM      2  O   GLN A   4       7.035   1.194  25.256  0.00  0.00    -0.274 OA
ATOM      3  N   SER A   5       5.995  -0.342  23.939  0.00  0.00    -0.301 N 
ATOM      4  H   SER A   5       5.217  -0.980  23.791  0.00  0.00    +0.150 HD
ENDROOT
BRANCH   1   5
ATOM      5  CA  GLN A   4       4.920   0.313  26.058  0.00  0.00    +0.159 C 
BRANCH   5   7
ATOM      6  C   VAL A   3       3.586  -1.718  26.597  0.00  0.00    +0.234 C 
ATOM      7  N   GLN A   4       4.794  -1.111  26.358  0.00  0.00    -0.302 N 
ATOM      8  H   GLN A   4       5.654  -1.656  26.362  0.00  0.00    +0.150 HD
ATOM      9  O   VAL A   3       2.529  -1.087  26.626  0.00  0.00    -0.274 OA
BRANCH   6  10
ATOM     10  CA  VAL A   3       3.647  -3.251  26.797  0.00  0.00    +0.161 C 
BRANCH  10  13
ATOM     11  C   THR A   2       4.463  -4.176  24.629  0.00  0.00    +0.236 C 
ATOM     12  O   THR A   2       3.332  -4.247  24.152  0.00  0.00    -0.274 OA
ATOM     13  N   VAL A   3       4.707  -3.714  25.901  0.00  0.00    -0.302 N 
ATOM     14  H   VAL A   3       5.661  -3.625  26.240  0.00  0.00    +0.150 HD
BRANCH  11  15
ATOM     15  CA  THR A   2       5.713  -4.569  23.830  0.00  0.00    +0.187 C 
BRANCH  15  17
ATOM     16  C   ALA A   1       7.594  -4.017  25.353  0.00  0.00    +0.230 C 
ATOM     17  N   THR A   2       6.732  -4.942  24.815  0.00  0.00    -0.301 N 
ATOM     18  H   THR A   2       6.868  -5.931  24.988  0.00  0.00    +0.150 HD
ATOM     19  O   ALA A   1       7.487  -2.806  25.173  0.00  0.00    -0.274 OA
BRANCH  16  20
ATOM     20  CA  ALA A   1       8.701  -4.623  26.239  0.00  0.00    +0.135 C 
ATOM     21  CB  ALA A   1       9.882  -5.040  25.373  0.00  0.00    +0.033 C 
BRANCH  20  22
ATOM     22  N   ALA A   1       8.169  -5.788  26.972  0.00  0.00    -0.320 NA
ATOM     23  H1  ALA A   1       8.336  -6.620  26.402  0.00  0.00    +0.119 HD
ATOM     24  H2  ALA A   1       8.775  -5.932  27.786  0.00  0.00    +0.119 HD
ENDBRANCH  20  22
ENDBRANCH  16  20
ENDBRANCH  15  17
BRANCH  15  25
ATOM     25  CB  THR A   2       5.371  -5.753  22.894  0.00  0.00    +0.141 C 
ATOM     26  CG2 THR A   2       6.582  -6.245  22.105  0.00  0.00    +0.040 C 
BRANCH  25  27
ATOM     27  OG1 THR A   2       4.869  -6.858  23.655  0.00  0.00    -0.390 OA
ATOM     28  HG1 THR A   2       5.244  -7.677  23.288  0.00  0.00    +0.210 HD
ENDBRANCH  25  27
ENDBRANCH  15  25
ENDBRANCH  11  15
ENDBRANCH  10  13
BRANCH  10  29
ATOM     29  CB  VAL A   3       3.943  -3.642  28.265  0.00  0.00    +0.012 C 
ATOM     30  CG2 VAL A   3       2.770  -4.373  28.930  0.00  0.00    +0.009 C 
ATOM     31  CG1 VAL A   3       5.190  -4.532  28.369  0.00  0.00    +0.009 C 
ENDBRANCH  10  29
ENDBRANCH   6  10
ENDBRANCH   5   7
BRANCH   5  32
ATOM     32  CB  GLN A   4       5.202   1.109  27.340  0.00  0.00    +0.041 C 
BRANCH  32  33
ATOM     33  CG  GLN A   4       5.872   0.278  28.434  0.00  0.00    +0.098 C 
BRANCH  33  34
ATOM     34  CD  GLN A   4       7.296   0.711  28.713  0.00  0.00    +0.211 C 
ATOM     35  OE1 GLN A   4       7.596   1.440  29.654  0.00  0.00    -0.276 OA
ATOM     36  NE2 GLN A   4       8.248   0.211  27.880  0.00  0.00    -0.329 N 
ATOM     37 HE21 GLN A   4       8.058  -0.472  27.159  0.00  0.00    +0.145 HD
ATOM     38 HE22 GLN A   4       9.213   0.454  28.063  0.00  0.00    +0.145 HD
ENDBRANCH  33  34
ENDBRANCH  32  33
ENDBRANCH   5  32
ENDBRANCH   1   5
BRANCH   3  39
ATOM     39  CA  SER A   5       6.915  -0.175  22.814  0.00  0.00    +0.184 C 
BRANCH  39  40
ATOM     40  C   SER A   5       6.487   1.083  22.041  0.00  0.00    +0.236 C 
ATOM     41  N   LYS A   6       5.897   2.063  22.802  0.00  0.00    -0.302 N 
ATOM     42  H   LYS A   6       5.721   1.918  23.793  0.00  0.00    +0.150 HD
ATOM     43  O   SER A   5       6.639   1.191  20.823  0.00  0.00    -0.274 OA
BRANCH  41  44
ATOM     44  CA  LYS A   6       5.474   3.338  22.238  0.00  0.00    +0.159 C 
BRANCH  44  45
ATOM     45  C   LYS A   6       6.512   4.374  22.702  0.00  0.00    +0.234 C 
ATOM     46  O   LYS A   6       6.745   5.397  22.060  0.00  0.00    -0.274 OA
ATOM     47  N   MET A   7       7.179   4.051  23.854  0.00  0.00    -0.302 N 
ATOM     48  H   MET A   7       6.964   3.190  24.351  0.00  0.00    +0.150 HD
BRANCH  47  49
ATOM     49  CA  MET A   7       8.283   4.847  24.384  0.00  0.00    +0.160 C 
BRANCH  49  50
ATOM     50  C   MET A   7       9.574   4.066  24.050  0.00  0.00    +0.234 C 
ATOM     51  N   SER A   8       9.493   2.702  24.187  0.00  0.00    -0.302 N 
ATOM     52  H   SER A   8       8.580   2.262  24.315  0.00  0.00    +0.150 HD
ATOM     53  O   MET A   7      10.617   4.632  23.715  0.00  0.00    -0.274 OA
BRANCH  51  54
ATOM     54  CA  SER A   8      10.547   1.801  23.715  0.00  0.00    +0.161 C 
BRANCH  54  55
ATOM     55  C   SER A   8      10.108   1.246  22.368  0.00  0.00    +0.247 C 
ATOM     56  O   SER A   8      10.203   0.053  22.081  0.00  0.00    -0.299 OA
ENDBRANCH  54  55
BRANCH  54  57
ATOM     57  CB  SER A   8      10.833   0.649  24.684  0.00  0.00    +0.185 C 
BRANCH  57  58
ATOM     58  OG  SER A   8       9.632  -0.008  25.090  0.00  0.00    -0.393 OA
ATOM     59  H   SER A   8       9.776  -0.326  26.000  0.00  0.00    +0.209 HD
ENDBRANCH  57  58
ENDBRANCH  54  57
ENDBRANCH  51  54
ENDBRANCH  49  50
BRANCH  49  60
ATOM     60  CB  MET A   7       8.146   5.076  25.893  0.00  0.00    +0.042 C 
BRANCH  60  61
ATOM     61  CG  MET A   7       6.832   4.524  26.446  0.00  0.00    +0.071 C 
BRANCH  61  62
ATOM     62  SD  MET A   7       6.199   5.628  27.745  0.00  0.00    -0.164 S 
ATOM     63  CE  MET A   7       5.669   4.368  28.933  0.00  0.00    +0.084 C 
ENDBRANCH  61  62
ENDBRANCH  60  61
ENDBRANCH  49  60
ENDBRANCH  47  49
ENDBRANCH  44  45
BRANCH  44  64
ATOM     64  CB  LYS A   6       4.064   3.715  22.722  0.00  0.00    +0.032 C 
BRANCH  64  65
ATOM     65  CG  LYS A   6       3.105   4.088  21.586  0.00  0.00    +0.007 C 
BRANCH  65  66
ATOM     66  CD  LYS A   6       2.223   2.904  21.187  0.00  0.00    +0.051 C 
BRANCH  66  67
ATOM     67  CE  LYS A   6       2.398   2.566  19.714  0.00  0.00    +0.127 C 
BRANCH  67  68
ATOM     68  NZ  LYS A   6       3.789   2.105  19.486  0.00  0.00    +0.219 N 
ATOM     69  HZ1 LYS A   6       4.334   2.097  20.359  0.00  0.00    +0.199 HD
ATOM     70  HZ2 LYS A   6       4.279   2.720  18.823  0.00  0.00    +0.199 HD
ATOM     71  HZ3 LYS A   6       3.814   1.153  19.096  0.00  0.00    +0.199 HD
ENDBRANCH  67  68
ENDBRANCH  66  67
ENDBRANCH  65  66
ENDBRANCH  64  65
ENDBRANCH  44  64
ENDBRANCH  41  44
ENDBRANCH  39  40
BRANCH  39  72
ATOM     72  CB  SER A   5       6.954  -1.406  21.903  0.00  0.00    +0.187 C 
BRANCH  72  73
ATOM     73  OG  SER A   5       8.058  -2.255  22.216  0.00  0.00    -0.393 OA
ATOM     74  H   SER A   5       7.735  -2.908  22.863  0.00  0.00    +0.209 HD
ENDBRANCH  72  73
ENDBRANCH  39  72
ENDBRANCH   3  39
TORSDOF 34
ENDMDL
MODEL 11
REMARK VINA RESULT:      -5.6      2.319      4.074
REMARK  Name = ATVQSKMS-mmff94.pdb
REMARK  39 active torsions:
REMARK  status: ('A' for Active; 'I' for Inactive)
REMARK    1  A    between atoms: _1  and  _2
REMARK    2  A    between atoms: _2  and  _3
REMARK    3  A    between atoms: _2  and  _5
REMARK    4  A    between atoms: _11  and  _12
REMARK    5  A    between atoms: _12  and  _13
REMARK    6  A    between atoms: _12  and  _15
REMARK    7  A    between atoms: _15  and  _16
REMARK    8  A    between atoms: _15  and  _17
REMARK    9  A    between atoms: _25  and  _26
REMARK   10  A    between atoms: _26  and  _27
REMARK   11  A    between atoms: _26  and  _29
REMARK   12  A    between atoms: _29  and  _30
REMARK   13  A    between atoms: _29  and  _31
REMARK   14  A    between atoms: _41  and  _42
REMARK   15  A    between atoms: _42  and  _43
REMARK   16  A    between atoms: _42  and  _45
REMARK   17  A    between atoms: _45  and  _46
REMARK   18  A    between atoms: _46  and  _47
REMARK   19  A    between atoms: _58  and  _59
REMARK   20  A    between atoms: _59  and  _60
REMARK   21  A    between atoms: _59  and  _62
REMARK   22  A    between atoms: _62  and  _63
REMARK   23  A    between atoms: _69  and  _70
REMARK   24  A    between atoms: _70  and  _71
REMARK   25  A    between atoms: _70  and  _73
REMARK   26  A    between atoms: _73  and  _74
REMARK   27  A    between atoms: _74  and  _75
REMARK   28  A    between atoms: _75  and  _76
REMARK   29  A    between atoms: _76  and  _77
REMARK   30  A    between atoms: _91  and  _92
REMARK   31  A    between atoms: _92  and  _93
REMARK   32  A    between atoms: _92  and  _95
REMARK   33  A    between atoms: _95  and  _96
REMARK   34  A    between atoms: _96  and  _97
REMARK   35  A    between atoms: _97  and  _98
REMARK   36  A    between atoms: _108  and  _109
REMARK   37  A    between atoms: _109  and  _110
REMARK   38  A    between atoms: _109  and  _112
REMARK   39  A    between atoms: _112  and  _113
REMARK                            x       y       z     vdW  Elec       q    Type
REMARK                         _______ _______ _______ _____ _____    ______ ____
ROOT
ATOM      1  C   GLN A   4       4.725  -2.409  27.507  0.00  0.00    +0.234 C 
ATOM      2  O   GLN A   4       4.782  -2.385  28.736  0.00  0.00    -0.274 OA
ATOM      3  N   SER A   5       5.358  -1.477  26.730  0.00  0.00    -0.301 N 
ATOM      4  H   SER A   5       5.312  -1.506  25.715  0.00  0.00    +0.150 HD
ENDROOT
BRANCH   1   5
ATOM      5  CA  GLN A   4       3.889  -3.457  26.749  0.00  0.00    +0.159 C 
BRANCH   5   7
ATOM      6  C   VAL A   3       4.080  -4.000  24.327  0.00  0.00    +0.234 C 
ATOM      7  N   GLN A   4       4.660  -3.785  25.553  0.00  0.00    -0.302 N 
ATOM      8  H   GLN A   4       5.672  -3.829  25.658  0.00  0.00    +0.150 HD
ATOM      9  O   VAL A   3       2.859  -3.980  24.168  0.00  0.00    -0.274 OA
BRANCH   6  10
ATOM     10  CA  VAL A   3       5.069  -4.236  23.162  0.00  0.00    +0.161 C 
BRANCH  10  13
ATOM     11  C   THR A   2       7.410  -3.378  23.117  0.00  0.00    +0.236 C 
ATOM     12  O   THR A   2       7.275  -2.863  22.008  0.00  0.00    -0.274 OA
ATOM     13  N   VAL A   3       6.400  -4.066  23.746  0.00  0.00    -0.302 N 
ATOM     14  H   VAL A   3       6.536  -4.434  24.683  0.00  0.00    +0.150 HD
BRANCH  11  15
ATOM     15  CA  THR A   2       8.717  -3.270  23.915  0.00  0.00    +0.187 C 
BRANCH  15  17
ATOM     16  C   ALA A   1      10.033  -1.301  23.171  0.00  0.00    +0.230 C 
ATOM     17  N   THR A   2       9.052  -1.845  23.965  0.00  0.00    -0.301 N 
ATOM     18  H   THR A   2       8.627  -1.295  24.703  0.00  0.00    +0.150 HD
ATOM     19  O   ALA A   1      10.592  -1.919  22.267  0.00  0.00    -0.274 OA
BRANCH  16  20
ATOM     20  CA  ALA A   1      10.359   0.173  23.485  0.00  0.00    +0.135 C 
ATOM     21  CB  ALA A   1      10.659   0.327  24.970  0.00  0.00    +0.033 C 
BRANCH  20  22
ATOM     22  N   ALA A   1       9.217   1.026  23.104  0.00  0.00    -0.320 NA
ATOM     23  H1  ALA A   1       9.031   0.875  22.111  0.00  0.00    +0.119 HD
ATOM     24  H2  ALA A   1       8.387   0.640  23.564  0.00  0.00    +0.119 HD
ENDBRANCH  20  22
ENDBRANCH  16  20
ENDBRANCH  15  17
BRANCH  15  25
ATOM     25  CB  THR A   2       8.501  -3.851  25.332  0.00  0.00    +0.141 C 
ATOM     26  CG2 THR A   2       9.693  -4.674  25.816  0.00  0.00    +0.040 C 
BRANCH  25  27
ATOM     27  OG1 THR A   2       8.291  -2.793  26.275  0.00  0.00    -0.390 OA
ATOM     28  HG1 THR A   2       7.333  -2.649  26.362  0.00  0.00    +0.210 HD
ENDBRANCH  25  27
ENDBRANCH  15  25
ENDBRANCH  11  15
ENDBRANCH  10  13
BRANCH  10  29
ATOM     29  CB  VAL A   3       4.909  -5.640  22.529  0.00  0.00    +0.012 C 
ATOM     30  CG2 VAL A   3       5.981  -5.941  21.475  0.00  0.00    +0.009 C 
ATOM     31  CG1 VAL A   3       4.954  -6.745  23.596  0.00  0.00    +0.009 C 
ENDBRANCH  10  29
ENDBRANCH   6  10
ENDBRANCH   5   7
BRANCH   5  32
ATOM     32  CB  GLN A   4       3.667  -4.710  27.606  0.00  0.00    +0.041 C 
BRANCH  32  33
ATOM     33  CG  GLN A   4       4.508  -5.907  27.160  0.00  0.00    +0.098 C 
BRANCH  33  34
ATOM     34  CD  GLN A   4       5.640  -6.220  28.117  0.00  0.00    +0.211 C 
ATOM     35  OE1 GLN A   4       6.498  -5.396  28.421  0.00  0.00    -0.276 OA
ATOM     36  NE2 GLN A   4       5.634  -7.464  28.665  0.00  0.00    -0.329 N 
ATOM     37 HE21 GLN A   4       4.891  -8.135  28.523  0.00  0.00    +0.145 HD
ATOM     38 HE22 GLN A   4       6.358  -7.690  29.335  0.00  0.00    +0.145 HD
ENDBRANCH  33  34
ENDBRANCH  32  33
ENDBRANCH   5  32
ENDBRANCH   1   5
BRANCH   3  39
ATOM     39  CA  SER A   5       6.000  -0.300  27.314  0.00  0.00    +0.184 C 
BRANCH  39  40
ATOM     40  C   SER A   5       4.984   0.853  27.281  0.00  0.00    +0.236 C 
ATOM     41  N   LYS A   6       5.433   2.011  26.696  0.00  0.00    -0.302 N 
ATOM     42  H   LYS A   6       6.392   2.090  26.365  0.00  0.00    +0.150 HD
ATOM     43  O   SER A   5       3.857   0.751  27.769  0.00  0.00    -0.274 OA
BRANCH  41  44
ATOM     44  CA  LYS A   6       4.585   3.186  26.539  0.00  0.00    +0.159 C 
BRANCH  44  45
ATOM     45  C   LYS A   6       3.940   3.063  25.149  0.00  0.00    +0.234 C 
ATOM     46  O   LYS A   6       2.821   2.578  24.990  0.00  0.00    -0.274 OA
ATOM     47  N   MET A   7       4.718   3.494  24.108  0.00  0.00    -0.302 N 
ATOM     48  H   MET A   7       5.643   3.880  24.280  0.00  0.00    +0.150 HD
BRANCH  47  49
ATOM     49  CA  MET A   7       4.329   3.346  22.708  0.00  0.00    +0.160 C 
BRANCH  49  50
ATOM     50  C   MET A   7       5.560   2.762  21.979  0.00  0.00    +0.234 C 
ATOM     51  N   SER A   8       5.283   1.957  20.902  0.00  0.00    -0.302 N 
ATOM     52  H   SER A   8       4.333   1.927  20.527  0.00  0.00    +0.150 HD
ATOM     53  O   MET A   7       6.713   2.977  22.360  0.00  0.00    -0.274 OA
BRANCH  51  54
ATOM     54  CA  SER A   8       6.323   1.495  19.978  0.00  0.00    +0.161 C 
BRANCH  54  55
ATOM     55  C   SER A   8       5.678   1.320  18.612  0.00  0.00    +0.247 C 
ATOM     56  O   SER A   8       6.137   0.566  17.755  0.00  0.00    -0.299 OA
ENDBRANCH  54  55
BRANCH  54  57
ATOM     57  CB  SER A   8       6.977   0.182  20.418  0.00  0.00    +0.185 C 
BRANCH  57  58
ATOM     58  OG  SER A   8       6.056  -0.909  20.367  0.00  0.00    -0.393 OA
ATOM     59  H   SER A   8       6.491  -1.625  19.868  0.00  0.00    +0.209 HD
ENDBRANCH  57  58
ENDBRANCH  54  57
ENDBRANCH  51  54
ENDBRANCH  49  50
BRANCH  49  60
ATOM     60  CB  MET A   7       3.899   4.683  22.093  0.00  0.00    +0.042 C 
BRANCH  60  61
ATOM     61  CG  MET A   7       2.396   4.739  21.822  0.00  0.00    +0.071 C 
BRANCH  61  62
ATOM     62  SD  MET A   7       1.763   3.062  21.516  0.00  0.00    -0.164 S 
ATOM     63  CE  MET A   7       2.056   2.986  19.731  0.00  0.00    +0.084 C 
ENDBRANCH  61  62
ENDBRANCH  60  61
ENDBRANCH  49  60
ENDBRANCH  47  49
ENDBRANCH  44  45
BRANCH  44  64
ATOM     64  CB  LYS A   6       5.408   4.480  26.654  0.00  0.00    +0.032 C 
BRANCH  64  65
ATOM     65  CG  LYS A   6       6.914   4.240  26.800  0.00  0.00    +0.007 C 
BRANCH  65  66
ATOM     66  CD  LYS A   6       7.722   5.217  25.943  0.00  0.00    +0.051 C 
BRANCH  66  67
ATOM     67  CE  LYS A   6       8.660   4.471  25.005  0.00  0.00    +0.127 C 
BRANCH  67  68
ATOM     68  NZ  LYS A   6       8.284   3.036  24.985  0.00  0.00    +0.219 N 
ATOM     69  HZ1 LYS A   6       8.335   2.644  24.035  0.00  0.00    +0.199 HD
ATOM     70  HZ2 LYS A   6       7.323   2.900  25.324  0.00  0.00    +0.199 HD
ATOM     71  HZ3 LYS A   6       8.903   2.475  25.586  0.00  0.00    +0.199 HD
ENDBRANCH  67  68
ENDBRANCH  66  67
ENDBRANCH  65  66
ENDBRANCH  64  65
ENDBRANCH  44  64
ENDBRANCH  41  44
ENDBRANCH  39  40
BRANCH  39  72
ATOM     72  CB  SER A   5       7.297   0.077  26.590  0.00  0.00    +0.187 C 
BRANCH  72  73
ATOM     73  OG  SER A   5       7.159  -0.037  25.174  0.00  0.00    -0.393 OA
ATOM     74  H   SER A   5       7.078  -0.987  24.976  0.00  0.00    +0.209 HD
ENDBRANCH  72  73
ENDBRANCH  39  72
ENDBRANCH   3  39
TORSDOF 34
ENDMDL
MODEL 12
REMARK VINA RESULT:      -5.6      2.101      3.568
REMARK  Name = ATVQSKMS-mmff94.pdb
REMARK  39 active torsions:
REMARK  status: ('A' for Active; 'I' for Inactive)
REMARK    1  A    between atoms: _1  and  _2
REMARK    2  A    between atoms: _2  and  _3
REMARK    3  A    between atoms: _2  and  _5
REMARK    4  A    between atoms: _11  and  _12
REMARK    5  A    between atoms: _12  and  _13
REMARK    6  A    between atoms: _12  and  _15
REMARK    7  A    between atoms: _15  and  _16
REMARK    8  A    between atoms: _15  and  _17
REMARK    9  A    between atoms: _25  and  _26
REMARK   10  A    between atoms: _26  and  _27
REMARK   11  A    between atoms: _26  and  _29
REMARK   12  A    between atoms: _29  and  _30
REMARK   13  A    between atoms: _29  and  _31
REMARK   14  A    between atoms: _41  and  _42
REMARK   15  A    between atoms: _42  and  _43
REMARK   16  A    between atoms: _42  and  _45
REMARK   17  A    between atoms: _45  and  _46
REMARK   18  A    between atoms: _46  and  _47
REMARK   19  A    between atoms: _58  and  _59
REMARK   20  A    between atoms: _59  and  _60
REMARK   21  A    between atoms: _59  and  _62
REMARK   22  A    between atoms: _62  and  _63
REMARK   23  A    between atoms: _69  and  _70
REMARK   24  A    between atoms: _70  and  _71
REMARK   25  A    between atoms: _70  and  _73
REMARK   26  A    between atoms: _73  and  _74
REMARK   27  A    between atoms: _74  and  _75
REMARK   28  A    between atoms: _75  and  _76
REMARK   29  A    between atoms: _76  and  _77
REMARK   30  A    between atoms: _91  and  _92
REMARK   31  A    between atoms: _92  and  _93
REMARK   32  A    between atoms: _92  and  _95
REMARK   33  A    between atoms: _95  and  _96
REMARK   34  A    between atoms: _96  and  _97
REMARK   35  A    between atoms: _97  and  _98
REMARK   36  A    between atoms: _108  and  _109
REMARK   37  A    between atoms: _109  and  _110
REMARK   38  A    between atoms: _109  and  _112
REMARK   39  A    between atoms: _112  and  _113
REMARK                            x       y       z     vdW  Elec       q    Type
REMARK                         _______ _______ _______ _____ _____    ______ ____
ROOT
ATOM      1  C   GLN A   4       4.313  -2.003  27.781  0.00  0.00    +0.234 C 
ATOM      2  O   GLN A   4       4.271  -1.651  28.960  0.00  0.00    -0.274 OA
ATOM      3  N   SER A   5       4.804  -1.190  26.796  0.00  0.00    -0.301 N 
ATOM      4  H   SER A   5       4.842  -1.488  25.825  0.00  0.00    +0.150 HD
ENDROOT
BRANCH   1   5
ATOM      5  CA  GLN A   4       3.764  -3.364  27.314  0.00  0.00    +0.159 C 
BRANCH   5   7
ATOM      6  C   VAL A   3       3.793  -3.887  24.881  0.00  0.00    +0.234 C 
ATOM      7  N   GLN A   4       4.455  -3.658  26.061  0.00  0.00    -0.302 N 
ATOM      8  H   GLN A   4       5.473  -3.667  26.091  0.00  0.00    +0.150 HD
ATOM      9  O   VAL A   3       2.564  -3.909  24.812  0.00  0.00    -0.274 OA
BRANCH   6  10
ATOM     10  CA  VAL A   3       4.701  -4.082  23.644  0.00  0.00    +0.161 C 
BRANCH  10  13
ATOM     11  C   THR A   2       6.957  -3.023  23.726  0.00  0.00    +0.236 C 
ATOM     12  O   THR A   2       6.671  -2.181  22.876  0.00  0.00    -0.274 OA
ATOM     13  N   VAL A   3       6.070  -3.983  24.150  0.00  0.00    -0.302 N 
ATOM     14  H   VAL A   3       6.329  -4.630  24.890  0.00  0.00    +0.150 HD
BRANCH  11  15
ATOM     15  CA  THR A   2       8.329  -3.057  24.413  0.00  0.00    +0.187 C 
BRANCH  15  17
ATOM     16  C   ALA A   1      10.002  -1.477  23.482  0.00  0.00    +0.230 C 
ATOM     17  N   THR A   2       8.898  -1.716  24.265  0.00  0.00    -0.301 N 
ATOM     18  H   THR A   2       8.530  -0.988  24.867  0.00  0.00    +0.150 HD
ATOM     19  O   ALA A   1      10.500  -2.321  22.739  0.00  0.00    -0.274 OA
BRANCH  16  20
ATOM     20  CA  ALA A   1      10.553  -0.041  23.584  0.00  0.00    +0.135 C 
ATOM     21  CB  ALA A   1      10.336   0.493  24.993  0.00  0.00    +0.033 C 
BRANCH  20  22
ATOM     22  N   ALA A   1       9.876   0.823  22.600  0.00  0.00    -0.320 NA
ATOM     23  H1  ALA A   1       9.589   0.238  21.813  0.00  0.00    +0.119 HD
ATOM     24  H2  ALA A   1       8.986   1.113  23.017  0.00  0.00    +0.119 HD
ENDBRANCH  20  22
ENDBRANCH  16  20
ENDBRANCH  15  17
BRANCH  15  25
ATOM     25  CB  THR A   2       8.146  -3.433  25.903  0.00  0.00    +0.141 C 
ATOM     26  CG2 THR A   2       9.164  -4.469  26.375  0.00  0.00    +0.040 C 
BRANCH  25  27
ATOM     27  OG1 THR A   2       8.291  -2.272  26.729  0.00  0.00    -0.390 OA
ATOM     28  HG1 THR A   2       7.511  -2.208  27.305  0.00  0.00    +0.210 HD
ENDBRANCH  25  27
ENDBRANCH  15  25
ENDBRANCH  11  15
ENDBRANCH  10  13
BRANCH  10  29
ATOM     29  CB  VAL A   3       4.458  -5.442  22.944  0.00  0.00    +0.012 C 
ATOM     30  CG2 VAL A   3       5.596  -5.829  21.992  0.00  0.00    +0.009 C 
ATOM     31  CG1 VAL A   3       4.274  -6.574  23.966  0.00  0.00    +0.009 C 
ENDBRANCH  10  29
ENDBRANCH   6  10
ENDBRANCH   5   7
BRANCH   5  32
ATOM     32  CB  GLN A   4       4.045  -4.458  28.353  0.00  0.00    +0.041 C 
BRANCH  32  33
ATOM     33  CG  GLN A   4       5.506  -4.909  28.379  0.00  0.00    +0.098 C 
BRANCH  33  34
ATOM     34  CD  GLN A   4       5.727  -6.227  27.668  0.00  0.00    +0.211 C 
ATOM     35  OE1 GLN A   4       6.187  -6.299  26.532  0.00  0.00    -0.276 OA
ATOM     36  NE2 GLN A   4       5.427  -7.348  28.377  0.00  0.00    -0.329 N 
ATOM     37 HE21 GLN A   4       5.146  -7.337  29.348  0.00  0.00    +0.145 HD
ATOM     38 HE22 GLN A   4       5.598  -8.245  27.941  0.00  0.00    +0.145 HD
ENDBRANCH  33  34
ENDBRANCH  32  33
ENDBRANCH   5  32
ENDBRANCH   1   5
BRANCH   3  39
ATOM     39  CA  SER A   5       5.152   0.207  27.056  0.00  0.00    +0.184 C 
BRANCH  39  40
ATOM     40  C   SER A   5       4.040   1.086  26.460  0.00  0.00    +0.236 C 
ATOM     41  N   LYS A   6       4.477   2.161  25.725  0.00  0.00    -0.302 N 
ATOM     42  H   LYS A   6       5.469   2.367  25.643  0.00  0.00    +0.150 HD
ATOM     43  O   SER A   5       2.844   0.855  26.650  0.00  0.00    -0.274 OA
BRANCH  41  44
ATOM     44  CA  LYS A   6       3.558   3.069  25.050  0.00  0.00    +0.159 C 
BRANCH  44  45
ATOM     45  C   LYS A   6       4.096   3.234  23.619  0.00  0.00    +0.234 C 
ATOM     46  O   LYS A   6       3.351   3.269  22.642  0.00  0.00    -0.274 OA
ATOM     47  N   MET A   7       5.461   3.298  23.517  0.00  0.00    -0.302 N 
ATOM     48  H   MET A   7       6.043   3.256  24.349  0.00  0.00    +0.150 HD
BRANCH  47  49
ATOM     49  CA  MET A   7       6.162   3.332  22.236  0.00  0.00    +0.160 C 
BRANCH  49  50
ATOM     50  C   MET A   7       6.379   1.857  21.827  0.00  0.00    +0.234 C 
ATOM     51  N   SER A   8       6.024   1.543  20.538  0.00  0.00    -0.302 N 
ATOM     52  H   SER A   8       5.818   2.292  19.876  0.00  0.00    +0.150 HD
ATOM     53  O   MET A   7       6.811   1.013  22.615  0.00  0.00    -0.274 OA
BRANCH  51  54
ATOM     54  CA  SER A   8       6.356   0.254  19.924  0.00  0.00    +0.161 C 
BRANCH  54  55
ATOM     55  C   SER A   8       7.860   0.227  19.699  0.00  0.00    +0.247 C 
ATOM     56  O   SER A   8       8.613  -0.498  20.349  0.00  0.00    -0.299 OA
ENDBRANCH  54  55
BRANCH  54  57
ATOM     57  CB  SER A   8       5.626   0.014  18.599  0.00  0.00    +0.185 C 
BRANCH  57  58
ATOM     58  OG  SER A   8       5.485   1.221  17.849  0.00  0.00    -0.393 OA
ATOM     59  H   SER A   8       4.548   1.484  17.907  0.00  0.00    +0.209 HD
ENDBRANCH  57  58
ENDBRANCH  54  57
ENDBRANCH  51  54
ENDBRANCH  49  50
BRANCH  49  60
ATOM     60  CB  MET A   7       7.494   4.084  22.336  0.00  0.00    +0.042 C 
BRANCH  60  61
ATOM     61  CG  MET A   7       7.545   5.012  23.550  0.00  0.00    +0.071 C 
BRANCH  61  62
ATOM     62  SD  MET A   7       8.730   4.366  24.768  0.00  0.00    -0.164 S 
ATOM     63  CE  MET A   7       7.615   4.249  26.190  0.00  0.00    +0.084 C 
ENDBRANCH  61  62
ENDBRANCH  60  61
ENDBRANCH  49  60
ENDBRANCH  47  49
ENDBRANCH  44  45
BRANCH  44  64
ATOM     64  CB  LYS A   6       3.489   4.424  25.775  0.00  0.00    +0.032 C 
BRANCH  64  65
ATOM     65  CG  LYS A   6       2.601   4.408  27.024  0.00  0.00    +0.007 C 
BRANCH  65  66
ATOM     66  CD  LYS A   6       3.377   4.849  28.266  0.00  0.00    +0.051 C 
BRANCH  66  67
ATOM     67  CE  LYS A   6       3.786   3.649  29.108  0.00  0.00    +0.127 C 
BRANCH  67  68
ATOM     68  NZ  LYS A   6       5.251   3.448  28.983  0.00  0.00    +0.219 N 
ATOM     69  HZ1 LYS A   6       5.697   4.221  28.470  0.00  0.00    +0.199 HD
ATOM     70  HZ2 LYS A   6       5.464   2.579  28.477  0.00  0.00    +0.199 HD
ATOM     71  HZ3 LYS A   6       5.704   3.386  29.904  0.00  0.00    +0.199 HD
ENDBRANCH  67  68
ENDBRANCH  66  67
ENDBRANCH  65  66
ENDBRANCH  64  65
ENDBRANCH  44  64
ENDBRANCH  41  44
ENDBRANCH  39  40
BRANCH  39  72
ATOM     72  CB  SER A   5       6.525   0.583  26.491  0.00  0.00    +0.187 C 
BRANCH  72  73
ATOM     73  OG  SER A   5       6.737   0.006  25.202  0.00  0.00    -0.393 OA
ATOM     74  H   SER A   5       6.990  -0.923  25.350  0.00  0.00    +0.209 HD
ENDBRANCH  72  73
ENDBRANCH  39  72
ENDBRANCH   3  39
TORSDOF 34
ENDMDL
MODEL 13
REMARK VINA RESULT:      -5.6      2.330      5.879
REMARK  Name = ATVQSKMS-mmff94.pdb
REMARK  39 active torsions:
REMARK  status: ('A' for Active; 'I' for Inactive)
REMARK    1  A    between atoms: _1  and  _2
REMARK    2  A    between atoms: _2  and  _3
REMARK    3  A    between atoms: _2  and  _5
REMARK    4  A    between atoms: _11  and  _12
REMARK    5  A    between atoms: _12  and  _13
REMARK    6  A    between atoms: _12  and  _15
REMARK    7  A    between atoms: _15  and  _16
REMARK    8  A    between atoms: _15  and  _17
REMARK    9  A    between atoms: _25  and  _26
REMARK   10  A    between atoms: _26  and  _27
REMARK   11  A    between atoms: _26  and  _29
REMARK   12  A    between atoms: _29  and  _30
REMARK   13  A    between atoms: _29  and  _31
REMARK   14  A    between atoms: _41  and  _42
REMARK   15  A    between atoms: _42  and  _43
REMARK   16  A    between atoms: _42  and  _45
REMARK   17  A    between atoms: _45  and  _46
REMARK   18  A    between atoms: _46  and  _47
REMARK   19  A    between atoms: _58  and  _59
REMARK   20  A    between atoms: _59  and  _60
REMARK   21  A    between atoms: _59  and  _62
REMARK   22  A    between atoms: _62  and  _63
REMARK   23  A    between atoms: _69  and  _70
REMARK   24  A    between atoms: _70  and  _71
REMARK   25  A    between atoms: _70  and  _73
REMARK   26  A    between atoms: _73  and  _74
REMARK   27  A    between atoms: _74  and  _75
REMARK   28  A    between atoms: _75  and  _76
REMARK   29  A    between atoms: _76  and  _77
REMARK   30  A    between atoms: _91  and  _92
REMARK   31  A    between atoms: _92  and  _93
REMARK   32  A    between atoms: _92  and  _95
REMARK   33  A    between atoms: _95  and  _96
REMARK   34  A    between atoms: _96  and  _97
REMARK   35  A    between atoms: _97  and  _98
REMARK   36  A    between atoms: _108  and  _109
REMARK   37  A    between atoms: _109  and  _110
REMARK   38  A    between atoms: _109  and  _112
REMARK   39  A    between atoms: _112  and  _113
REMARK                            x       y       z     vdW  Elec       q    Type
REMARK                         _______ _______ _______ _____ _____    ______ ____
ROOT
ATOM      1  C   GLN A   4       7.431  -1.654  21.811  0.00  0.00    +0.234 C 
ATOM      2  O   GLN A   4       8.644  -1.463  21.725  0.00  0.00    -0.274 OA
ATOM      3  N   SER A   5       6.529  -0.949  21.063  0.00  0.00    -0.301 N 
ATOM      4  H   SER A   5       5.528  -1.116  21.132  0.00  0.00    +0.150 HD
ENDROOT
BRANCH   1   5
ATOM      5  CA  GLN A   4       6.832  -2.664  22.807  0.00  0.00    +0.159 C 
BRANCH   5   7
ATOM      6  C   VAL A   3       6.742  -1.768  25.128  0.00  0.00    +0.234 C 
ATOM      7  N   GLN A   4       6.219  -1.859  23.862  0.00  0.00    -0.302 N 
ATOM      8  H   GLN A   4       5.381  -1.338  23.611  0.00  0.00    +0.150 HD
ATOM      9  O   VAL A   3       7.738  -2.404  25.473  0.00  0.00    -0.274 OA
BRANCH   6  10
ATOM     10  CA  VAL A   3       6.008  -0.789  26.074  0.00  0.00    +0.161 C 
BRANCH  10  13
ATOM     11  C   THR A   2       4.036  -2.177  26.708  0.00  0.00    +0.236 C 
ATOM     12  O   THR A   2       3.461  -1.976  25.639  0.00  0.00    -0.274 OA
ATOM     13  N   VAL A   3       5.265  -1.637  27.006  0.00  0.00    -0.302 N 
ATOM     14  H   VAL A   3       5.728  -1.867  27.880  0.00  0.00    +0.150 HD
BRANCH  11  15
ATOM     15  CA  THR A   2       3.441  -3.078  27.799  0.00  0.00    +0.187 C 
BRANCH  15  17
ATOM     16  C   ALA A   1       4.606  -5.270  27.761  0.00  0.00    +0.230 C 
ATOM     17  N   THR A   2       4.517  -3.978  28.222  0.00  0.00    -0.301 N 
ATOM     18  H   THR A   2       5.120  -3.659  28.971  0.00  0.00    +0.150 HD
ATOM     19  O   ALA A   1       3.897  -5.719  26.862  0.00  0.00    -0.274 OA
BRANCH  16  20
ATOM     20  CA  ALA A   1       5.701  -6.113  28.446  0.00  0.00    +0.135 C 
ATOM     21  CB  ALA A   1       5.728  -5.806  29.936  0.00  0.00    +0.033 C 
BRANCH  20  22
ATOM     22  N   ALA A   1       7.011  -5.813  27.838  0.00  0.00    -0.320 NA
ATOM     23  H1  ALA A   1       7.597  -5.381  28.556  0.00  0.00    +0.119 HD
ATOM     24  H2  ALA A   1       7.473  -6.712  27.664  0.00  0.00    +0.119 HD
ENDBRANCH  20  22
ENDBRANCH  16  20
ENDBRANCH  15  17
BRANCH  15  25
ATOM     25  CB  THR A   2       2.943  -2.202  28.973  0.00  0.00    +0.141 C 
ATOM     26  CG2 THR A   2       3.761  -2.406  30.245  0.00  0.00    +0.040 C 
BRANCH  25  27
ATOM     27  OG1 THR A   2       3.018  -0.815  28.624  0.00  0.00    -0.390 OA
ATOM     28  HG1 THR A   2       3.812  -0.439  29.040  0.00  0.00    +0.210 HD
ENDBRANCH  25  27
ENDBRANCH  15  25
ENDBRANCH  11  15
ENDBRANCH  10  13
BRANCH  10  29
ATOM     29  CB  VAL A   3       6.986   0.147  26.826  0.00  0.00    +0.012 C 
ATOM     30  CG2 VAL A   3       7.296   1.430  26.044  0.00  0.00    +0.009 C 
ATOM     31  CG1 VAL A   3       6.438   0.540  28.206  0.00  0.00    +0.009 C 
ENDBRANCH  10  29
ENDBRANCH   6  10
ENDBRANCH   5   7
BRANCH   5  32
ATOM     32  CB  GLN A   4       5.779  -3.551  22.128  0.00  0.00    +0.041 C 
BRANCH  32  33
ATOM     33  CG  GLN A   4       4.835  -4.236  23.117  0.00  0.00    +0.098 C 
BRANCH  33  34
ATOM     34  CD  GLN A   4       5.428  -5.491  23.723  0.00  0.00    +0.211 C 
ATOM     35  OE1 GLN A   4       6.260  -5.462  24.625  0.00  0.00    -0.276 OA
ATOM     36  NE2 GLN A   4       4.954  -6.670  23.241  0.00  0.00    -0.329 N 
ATOM     37 HE21 GLN A   4       4.196  -6.739  22.575  0.00  0.00    +0.145 HD
ATOM     38 HE22 GLN A   4       5.306  -7.526  23.652  0.00  0.00    +0.145 HD
ENDBRANCH  33  34
ENDBRANCH  32  33
ENDBRANCH   5  32
ENDBRANCH   1   5
BRANCH   3  39
ATOM     39  CA  SER A   5       6.936   0.191  20.241  0.00  0.00    +0.184 C 
BRANCH  39  40
ATOM     40  C   SER A   5       6.055   1.388  20.631  0.00  0.00    +0.236 C 
ATOM     41  N   LYS A   6       6.332   1.942  21.857  0.00  0.00    -0.302 N 
ATOM     42  H   LYS A   6       7.038   1.536  22.465  0.00  0.00    +0.150 HD
ATOM     43  O   SER A   5       5.149   1.804  19.906  0.00  0.00    -0.274 OA
BRANCH  41  44
ATOM     44  CA  LYS A   6       5.624   3.112  22.362  0.00  0.00    +0.159 C 
BRANCH  44  45
ATOM     45  C   LYS A   6       6.701   4.174  22.640  0.00  0.00    +0.234 C 
ATOM     46  O   LYS A   6       7.082   4.960  21.775  0.00  0.00    -0.274 OA
ATOM     47  N   MET A   7       7.227   4.149  23.906  0.00  0.00    -0.302 N 
ATOM     48  H   MET A   7       6.891   3.477  24.590  0.00  0.00    +0.150 HD
BRANCH  47  49
ATOM     49  CA  MET A   7       8.341   4.996  24.321  0.00  0.00    +0.160 C 
BRANCH  49  50
ATOM     50  C   MET A   7       9.626   4.193  24.019  0.00  0.00    +0.234 C 
ATOM     51  N   SER A   8       9.544   2.841  24.241  0.00  0.00    -0.302 N 
ATOM     52  H   SER A   8       8.632   2.412  24.408  0.00  0.00    +0.150 HD
ATOM     53  O   MET A   7      10.666   4.734  23.637  0.00  0.00    -0.274 OA
BRANCH  51  54
ATOM     54  CA  SER A   8      10.591   1.909  23.812  0.00  0.00    +0.161 C 
BRANCH  54  55
ATOM     55  C   SER A   8      10.319   1.551  22.359  0.00  0.00    +0.247 C 
ATOM     56  O   SER A   8       9.245   1.791  21.808  0.00  0.00    -0.299 OA
ENDBRANCH  54  55
BRANCH  54  57
ATOM     57  CB  SER A   8      10.647   0.635  24.661  0.00  0.00    +0.185 C 
BRANCH  57  58
ATOM     58  OG  SER A   8       9.758  -0.367  24.167  0.00  0.00    -0.393 OA
ATOM     59  H   SER A   8       8.852  -0.065  24.363  0.00  0.00    +0.209 HD
ENDBRANCH  57  58
ENDBRANCH  54  57
ENDBRANCH  51  54
ENDBRANCH  49  50
BRANCH  49  60
ATOM     60  CB  MET A   7       8.252   5.367  25.806  0.00  0.00    +0.042 C 
BRANCH  60  61
ATOM     61  CG  MET A   7       6.810   5.591  26.261  0.00  0.00    +0.071 C 
BRANCH  61  62
ATOM     62  SD  MET A   7       6.489   4.641  27.777  0.00  0.00    -0.164 S 
ATOM     63  CE  MET A   7       4.835   4.028  27.364  0.00  0.00    +0.084 C 
ENDBRANCH  61  62
ENDBRANCH  60  61
ENDBRANCH  49  60
ENDBRANCH  47  49
ENDBRANCH  44  45
BRANCH  44  64
ATOM     64  CB  LYS A   6       4.839   2.773  23.640  0.00  0.00    +0.032 C 
BRANCH  64  65
ATOM     65  CG  LYS A   6       3.492   3.498  23.744  0.00  0.00    +0.007 C 
BRANCH  65  66
ATOM     66  CD  LYS A   6       3.001   3.964  22.372  0.00  0.00    +0.051 C 
BRANCH  66  67
ATOM     67  CE  LYS A   6       1.888   3.064  21.856  0.00  0.00    +0.127 C 
BRANCH  67  68
ATOM     68  NZ  LYS A   6       2.360   2.361  20.638  0.00  0.00    +0.219 N 
ATOM     69  HZ1 LYS A   6       3.358   2.536  20.463  0.00  0.00    +0.199 HD
ATOM     70  HZ2 LYS A   6       1.841   2.672  19.807  0.00  0.00    +0.199 HD
ATOM     71  HZ3 LYS A   6       2.232   1.343  20.715  0.00  0.00    +0.199 HD
ENDBRANCH  67  68
ENDBRANCH  66  67
ENDBRANCH  65  66
ENDBRANCH  64  65
ENDBRANCH  44  64
ENDBRANCH  41  44
ENDBRANCH  39  40
BRANCH  39  72
ATOM     72  CB  SER A   5       6.845  -0.107  18.742  0.00  0.00    +0.187 C 
BRANCH  72  73
ATOM     73  OG  SER A   5       7.251   1.016  17.958  0.00  0.00    -0.393 OA
ATOM     74  H   SER A   5       6.451   1.353  17.516  0.00  0.00    +0.209 HD
ENDBRANCH  72  73
ENDBRANCH  39  72
ENDBRANCH   3  39
TORSDOF 34
ENDMDL
MODEL 14
REMARK VINA RESULT:      -5.6      1.929      4.560
REMARK  Name = ATVQSKMS-mmff94.pdb
REMARK  39 active torsions:
REMARK  status: ('A' for Active; 'I' for Inactive)
REMARK    1  A    between atoms: _1  and  _2
REMARK    2  A    between atoms: _2  and  _3
REMARK    3  A    between atoms: _2  and  _5
REMARK    4  A    between atoms: _11  and  _12
REMARK    5  A    between atoms: _12  and  _13
REMARK    6  A    between atoms: _12  and  _15
REMARK    7  A    between atoms: _15  and  _16
REMARK    8  A    between atoms: _15  and  _17
REMARK    9  A    between atoms: _25  and  _26
REMARK   10  A    between atoms: _26  and  _27
REMARK   11  A    between atoms: _26  and  _29
REMARK   12  A    between atoms: _29  and  _30
REMARK   13  A    between atoms: _29  and  _31
REMARK   14  A    between atoms: _41  and  _42
REMARK   15  A    between atoms: _42  and  _43
REMARK   16  A    between atoms: _42  and  _45
REMARK   17  A    between atoms: _45  and  _46
REMARK   18  A    between atoms: _46  and  _47
REMARK   19  A    between atoms: _58  and  _59
REMARK   20  A    between atoms: _59  and  _60
REMARK   21  A    between atoms: _59  and  _62
REMARK   22  A    between atoms: _62  and  _63
REMARK   23  A    between atoms: _69  and  _70
REMARK   24  A    between atoms: _70  and  _71
REMARK   25  A    between atoms: _70  and  _73
REMARK   26  A    between atoms: _73  and  _74
REMARK   27  A    between atoms: _74  and  _75
REMARK   28  A    between atoms: _75  and  _76
REMARK   29  A    between atoms: _76  and  _77
REMARK   30  A    between atoms: _91  and  _92
REMARK   31  A    between atoms: _92  and  _93
REMARK   32  A    between atoms: _92  and  _95
REMARK   33  A    between atoms: _95  and  _96
REMARK   34  A    between atoms: _96  and  _97
REMARK   35  A    between atoms: _97  and  _98
REMARK   36  A    between atoms: _108  and  _109
REMARK   37  A    between atoms: _109  and  _110
REMARK   38  A    between atoms: _109  and  _112
REMARK   39  A    between atoms: _112  and  _113
REMARK                            x       y       z     vdW  Elec       q    Type
REMARK                         _______ _______ _______ _____ _____    ______ ____
ROOT
ATOM      1  C   GLN A   4       6.840  -0.757  26.907  0.00  0.00    +0.234 C 
ATOM      2  O   GLN A   4       5.867  -1.235  27.490  0.00  0.00    -0.274 OA
ATOM      3  N   SER A   5       6.979   0.589  26.707  0.00  0.00    -0.301 N 
ATOM      4  H   SER A   5       7.788   0.980  26.230  0.00  0.00    +0.150 HD
ENDROOT
BRANCH   1   5
ATOM      5  CA  GLN A   4       7.949  -1.641  26.307  0.00  0.00    +0.159 C 
BRANCH   5   7
ATOM      6  C   VAL A   3       7.994  -4.125  26.463  0.00  0.00    +0.234 C 
ATOM      7  N   GLN A   4       7.348  -2.960  26.130  0.00  0.00    -0.302 N 
ATOM      8  H   GLN A   4       6.399  -2.985  25.761  0.00  0.00    +0.150 HD
ATOM      9  O   VAL A   3       9.150  -4.134  26.888  0.00  0.00    -0.274 OA
BRANCH   6  10
ATOM     10  CA  VAL A   3       7.156  -5.414  26.297  0.00  0.00    +0.161 C 
BRANCH  10  13
ATOM     11  C   THR A   2       5.729  -5.368  28.341  0.00  0.00    +0.236 C 
ATOM     12  O   THR A   2       6.620  -5.816  29.061  0.00  0.00    -0.274 OA
ATOM     13  N   VAL A   3       5.898  -5.149  26.995  0.00  0.00    -0.302 N 
ATOM     14  H   VAL A   3       5.152  -4.732  26.445  0.00  0.00    +0.150 HD
BRANCH  11  15
ATOM     15  CA  THR A   2       4.350  -4.982  28.894  0.00  0.00    +0.187 C 
BRANCH  15  17
ATOM     16  C   ALA A   1       3.108  -2.947  28.200  0.00  0.00    +0.230 C 
ATOM     17  N   THR A   2       3.721  -4.134  27.878  0.00  0.00    -0.301 N 
ATOM     18  H   THR A   2       3.636  -4.518  26.943  0.00  0.00    +0.150 HD
ATOM     19  O   ALA A   1       3.167  -2.436  29.316  0.00  0.00    -0.274 OA
BRANCH  16  20
ATOM     20  CA  ALA A   1       2.358  -2.283  27.027  0.00  0.00    +0.135 C 
ATOM     21  CB  ALA A   1       2.466  -3.158  25.786  0.00  0.00    +0.033 C 
BRANCH  20  22
ATOM     22  N   ALA A   1       2.931  -0.949  26.763  0.00  0.00    -0.320 NA
ATOM     23  H1  ALA A   1       3.782  -1.077  26.212  0.00  0.00    +0.119 HD
ATOM     24  H2  ALA A   1       2.296  -0.474  26.114  0.00  0.00    +0.119 HD
ENDBRANCH  20  22
ENDBRANCH  16  20
ENDBRANCH  15  17
BRANCH  15  25
ATOM     25  CB  THR A   2       3.523  -6.264  29.151  0.00  0.00    +0.141 C 
ATOM     26  CG2 THR A   2       2.328  -6.390  28.210  0.00  0.00    +0.040 C 
BRANCH  25  27
ATOM     27  OG1 THR A   2       4.342  -7.426  28.974  0.00  0.00    -0.390 OA
ATOM     28  HG1 THR A   2       3.785  -8.140  28.620  0.00  0.00    +0.210 HD
ENDBRANCH  25  27
ENDBRANCH  15  25
ENDBRANCH  11  15
ENDBRANCH  10  13
BRANCH  10  29
ATOM     29  CB  VAL A   3       6.910  -5.768  24.810  0.00  0.00    +0.012 C 
ATOM     30  CG2 VAL A   3       5.651  -5.101  24.243  0.00  0.00    +0.009 C 
ATOM     31  CG1 VAL A   3       8.106  -5.370  23.933  0.00  0.00    +0.009 C 
ENDBRANCH  10  29
ENDBRANCH   6  10
ENDBRANCH   5   7
BRANCH   5  32
ATOM     32  CB  GLN A   4       8.429  -1.084  24.960  0.00  0.00    +0.041 C 
BRANCH  32  33
ATOM     33  CG  GLN A   4       8.268  -2.072  23.804  0.00  0.00    +0.098 C 
BRANCH  33  34
ATOM     34  CD  GLN A   4       6.985  -1.864  23.026  0.00  0.00    +0.211 C 
ATOM     35  OE1 GLN A   4       6.629  -2.612  22.121  0.00  0.00    -0.276 OA
ATOM     36  NE2 GLN A   4       6.213  -0.814  23.416  0.00  0.00    -0.329 N 
ATOM     37 HE21 GLN A   4       6.417  -0.238  24.221  0.00  0.00    +0.145 HD
ATOM     38 HE22 GLN A   4       5.332  -0.671  22.938  0.00  0.00    +0.145 HD
ENDBRANCH  33  34
ENDBRANCH  32  33
ENDBRANCH   5  32
ENDBRANCH   1   5
BRANCH   3  39
ATOM     39  CA  SER A   5       5.902   1.528  27.023  0.00  0.00    +0.184 C 
BRANCH  39  40
ATOM     40  C   SER A   5       5.249   1.955  25.699  0.00  0.00    +0.236 C 
ATOM     41  N   LYS A   6       6.020   2.768  24.904  0.00  0.00    -0.302 N 
ATOM     42  H   LYS A   6       6.932   3.092  25.218  0.00  0.00    +0.150 HD
ATOM     43  O   SER A   5       4.107   1.614  25.386  0.00  0.00    -0.274 OA
BRANCH  41  44
ATOM     44  CA  LYS A   6       5.575   3.228  23.594  0.00  0.00    +0.159 C 
BRANCH  44  45
ATOM     45  C   LYS A   6       6.828   3.252  22.703  0.00  0.00    +0.234 C 
ATOM     46  O   LYS A   6       7.108   4.219  21.997  0.00  0.00    -0.274 OA
ATOM     47  N   MET A   7       7.579   2.106  22.727  0.00  0.00    -0.302 N 
ATOM     48  H   MET A   7       7.308   1.324  23.317  0.00  0.00    +0.150 HD
BRANCH  47  49
ATOM     49  CA  MET A   7       8.733   1.894  21.858  0.00  0.00    +0.160 C 
BRANCH  49  50
ATOM     50  C   MET A   7       8.320   0.792  20.857  0.00  0.00    +0.234 C 
ATOM     51  N   SER A   8       7.185   1.050  20.129  0.00  0.00    -0.302 N 
ATOM     52  H   SER A   8       6.782   1.989  20.139  0.00  0.00    +0.150 HD
ATOM     53  O   MET A   7       8.948  -0.263  20.743  0.00  0.00    -0.274 OA
BRANCH  51  54
ATOM     54  CA  SER A   8       6.771   0.217  18.997  0.00  0.00    +0.161 C 
BRANCH  54  55
ATOM     55  C   SER A   8       5.979   1.099  18.044  0.00  0.00    +0.247 C 
ATOM     56  O   SER A   8       6.424   1.467  16.957  0.00  0.00    -0.299 OA
ENDBRANCH  54  55
BRANCH  54  57
ATOM     57  CB  SER A   8       5.925  -0.990  19.415  0.00  0.00    +0.185 C 
BRANCH  57  58
ATOM     58  OG  SER A   8       5.566  -1.796  18.292  0.00  0.00    -0.393 OA
ATOM     59  H   SER A   8       6.179  -1.568  17.570  0.00  0.00    +0.209 HD
ENDBRANCH  57  58
ENDBRANCH  54  57
ENDBRANCH  51  54
ENDBRANCH  49  50
BRANCH  49  60
ATOM     60  CB  MET A   7       9.977   1.484  22.655  0.00  0.00    +0.042 C 
BRANCH  60  61
ATOM     61  CG  MET A   7      10.180   2.351  23.898  0.00  0.00    +0.071 C 
BRANCH  61  62
ATOM     62  SD  MET A   7      11.146   3.830  23.465  0.00  0.00    -0.164 S 
ATOM     63  CE  MET A   7       9.910   5.087  23.879  0.00  0.00    +0.084 C 
ENDBRANCH  61  62
ENDBRANCH  60  61
ENDBRANCH  49  60
ENDBRANCH  47  49
ENDBRANCH  44  45
BRANCH  44  64
ATOM     64  CB  LYS A   6       4.935   4.623  23.687  0.00  0.00    +0.032 C 
BRANCH  64  65
ATOM     65  CG  LYS A   6       3.505   4.680  23.140  0.00  0.00    +0.007 C 
BRANCH  65  66
ATOM     66  CD  LYS A   6       3.035   3.306  22.660  0.00  0.00    +0.051 C 
BRANCH  66  67
ATOM     67  CE  LYS A   6       2.720   3.327  21.171  0.00  0.00    +0.127 C 
BRANCH  67  68
ATOM     68  NZ  LYS A   6       3.786   2.598  20.441  0.00  0.00    +0.219 N 
ATOM     69  HZ1 LYS A   6       3.715   2.741  19.424  0.00  0.00    +0.199 HD
ATOM     70  HZ2 LYS A   6       3.729   1.586  20.615  0.00  0.00    +0.199 HD
ATOM     71  HZ3 LYS A   6       4.723   2.907  20.732  0.00  0.00    +0.199 HD
ENDBRANCH  67  68
ENDBRANCH  66  67
ENDBRANCH  65  66
ENDBRANCH  64  65
ENDBRANCH  44  64
ENDBRANCH  41  44
ENDBRANCH  39  40
BRANCH  39  72
ATOM     72  CB  SER A   5       6.397   2.739  27.820  0.00  0.00    +0.187 C 
BRANCH  72  73
ATOM     73  OG  SER A   5       7.681   3.172  27.371  0.00  0.00    -0.393 OA
ATOM     74  H   SER A   5       8.328   2.524  27.703  0.00  0.00    +0.209 HD
ENDBRANCH  72  73
ENDBRANCH  39  72
ENDBRANCH   3  39
TORSDOF 34
ENDMDL
MODEL 15
REMARK VINA RESULT:      -5.5      2.118      3.573
REMARK  Name = ATVQSKMS-mmff94.pdb
REMARK  39 active torsions:
REMARK  status: ('A' for Active; 'I' for Inactive)
REMARK    1  A    between atoms: _1  and  _2
REMARK    2  A    between atoms: _2  and  _3
REMARK    3  A    between atoms: _2  and  _5
REMARK    4  A    between atoms: _11  and  _12
REMARK    5  A    between atoms: _12  and  _13
REMARK    6  A    between atoms: _12  and  _15
REMARK    7  A    between atoms: _15  and  _16
REMARK    8  A    between atoms: _15  and  _17
REMARK    9  A    between atoms: _25  and  _26
REMARK   10  A    between atoms: _26  and  _27
REMARK   11  A    between atoms: _26  and  _29
REMARK   12  A    between atoms: _29  and  _30
REMARK   13  A    between atoms: _29  and  _31
REMARK   14  A    between atoms: _41  and  _42
REMARK   15  A    between atoms: _42  and  _43
REMARK   16  A    between atoms: _42  and  _45
REMARK   17  A    between atoms: _45  and  _46
REMARK   18  A    between atoms: _46  and  _47
REMARK   19  A    between atoms: _58  and  _59
REMARK   20  A    between atoms: _59  and  _60
REMARK   21  A    between atoms: _59  and  _62
REMARK   22  A    between atoms: _62  and  _63
REMARK   23  A    between atoms: _69  and  _70
REMARK   24  A    between atoms: _70  and  _71
REMARK   25  A    between atoms: _70  and  _73
REMARK   26  A    between atoms: _73  and  _74
REMARK   27  A    between atoms: _74  and  _75
REMARK   28  A    between atoms: _75  and  _76
REMARK   29  A    between atoms: _76  and  _77
REMARK   30  A    between atoms: _91  and  _92
REMARK   31  A    between atoms: _92  and  _93
REMARK   32  A    between atoms: _92  and  _95
REMARK   33  A    between atoms: _95  and  _96
REMARK   34  A    between atoms: _96  and  _97
REMARK   35  A    between atoms: _97  and  _98
REMARK   36  A    between atoms: _108  and  _109
REMARK   37  A    between atoms: _109  and  _110
REMARK   38  A    between atoms: _109  and  _112
REMARK   39  A    between atoms: _112  and  _113
REMARK                            x       y       z     vdW  Elec       q    Type
REMARK                         _______ _______ _______ _____ _____    ______ ____
ROOT
ATOM      1  C   GLN A   4       3.581   0.792  27.044  0.00  0.00    +0.234 C 
ATOM      2  O   GLN A   4       2.417   0.413  26.921  0.00  0.00    -0.274 OA
ATOM      3  N   SER A   5       3.935   2.108  26.924  0.00  0.00    -0.301 N 
ATOM      4  H   SER A   5       4.898   2.416  27.033  0.00  0.00    +0.150 HD
ENDROOT
BRANCH   1   5
ATOM      5  CA  GLN A   4       4.739  -0.194  27.287  0.00  0.00    +0.159 C 
BRANCH   5   7
ATOM      6  C   VAL A   3       4.140  -2.607  27.392  0.00  0.00    +0.234 C 
ATOM      7  N   GLN A   4       4.321  -1.452  26.674  0.00  0.00    -0.302 N 
ATOM      8  H   GLN A   4       4.143  -1.435  25.671  0.00  0.00    +0.150 HD
ATOM      9  O   VAL A   3       4.370  -2.670  28.600  0.00  0.00    -0.274 OA
BRANCH   6  10
ATOM     10  CA  VAL A   3       3.598  -3.809  26.583  0.00  0.00    +0.161 C 
BRANCH  10  13
ATOM     11  C   THR A   2       4.202  -4.351  24.225  0.00  0.00    +0.236 C 
ATOM     12  O   THR A   2       3.030  -4.513  23.887  0.00  0.00    -0.274 OA
ATOM     13  N   VAL A   3       4.568  -4.017  25.507  0.00  0.00    -0.302 N 
ATOM     14  H   VAL A   3       5.543  -3.844  25.734  0.00  0.00    +0.150 HD
BRANCH  11  15
ATOM     15  CA  THR A   2       5.364  -4.478  23.230  0.00  0.00    +0.187 C 
BRANCH  15  17
ATOM     16  C   ALA A   1       7.749  -3.914  23.623  0.00  0.00    +0.230 C 
ATOM     17  N   THR A   2       6.589  -4.527  24.032  0.00  0.00    -0.301 N 
ATOM     18  H   THR A   2       6.591  -5.142  24.837  0.00  0.00    +0.150 HD
ATOM     19  O   ALA A   1       7.813  -3.165  22.651  0.00  0.00    -0.274 OA
BRANCH  16  20
ATOM     20  CA  ALA A   1       8.973  -4.217  24.511  0.00  0.00    +0.135 C 
ATOM     21  CB  ALA A   1       8.594  -4.066  25.978  0.00  0.00    +0.033 C 
BRANCH  20  22
ATOM     22  N   ALA A   1      10.074  -3.297  24.172  0.00  0.00    -0.320 NA
ATOM     23  H1  ALA A   1      10.954  -3.758  24.414  0.00  0.00    +0.119 HD
ATOM     24  H2  ALA A   1      10.111  -3.238  23.149  0.00  0.00    +0.119 HD
ENDBRANCH  20  22
ENDBRANCH  16  20
ENDBRANCH  15  17
BRANCH  15  25
ATOM     25  CB  THR A   2       5.184  -5.767  22.394  0.00  0.00    +0.141 C 
ATOM     26  CG2 THR A   2       6.392  -6.065  21.509  0.00  0.00    +0.040 C 
BRANCH  25  27
ATOM     27  OG1 THR A   2       4.986  -6.894  23.255  0.00  0.00    -0.390 OA
ATOM     28  HG1 THR A   2       5.198  -7.701  22.755  0.00  0.00    +0.210 HD
ENDBRANCH  25  27
ENDBRANCH  15  25
ENDBRANCH  11  15
ENDBRANCH  10  13
BRANCH  10  29
ATOM     29  CB  VAL A   3       3.440  -5.081  27.451  0.00  0.00    +0.012 C 
ATOM     30  CG2 VAL A   3       2.199  -5.901  27.079  0.00  0.00    +0.009 C 
ATOM     31  CG1 VAL A   3       4.673  -5.990  27.343  0.00  0.00    +0.009 C 
ENDBRANCH  10  29
ENDBRANCH   6  10
ENDBRANCH   5   7
BRANCH   5  32
ATOM     32  CB  GLN A   4       6.038   0.312  26.643  0.00  0.00    +0.041 C 
BRANCH  32  33
ATOM     33  CG  GLN A   4       6.838  -0.789  25.947  0.00  0.00    +0.098 C 
BRANCH  33  34
ATOM     34  CD  GLN A   4       7.208  -0.436  24.521  0.00  0.00    +0.211 C 
ATOM     35  OE1 GLN A   4       6.387  -0.026  23.705  0.00  0.00    -0.276 OA
ATOM     36  NE2 GLN A   4       8.522  -0.556  24.196  0.00  0.00    -0.329 N 
ATOM     37 HE21 GLN A   4       9.245  -0.790  24.863  0.00  0.00    +0.145 HD
ATOM     38 HE22 GLN A   4       8.805  -0.293  23.260  0.00  0.00    +0.145 HD
ENDBRANCH  33  34
ENDBRANCH  32  33
ENDBRANCH   5  32
ENDBRANCH   1   5
BRANCH   3  39
ATOM     39  CA  SER A   5       2.981   3.122  26.476  0.00  0.00    +0.184 C 
BRANCH  39  40
ATOM     40  C   SER A   5       2.981   3.118  24.939  0.00  0.00    +0.236 C 
ATOM     41  N   LYS A   6       4.032   3.782  24.354  0.00  0.00    -0.302 N 
ATOM     42  H   LYS A   6       4.716   4.276  24.921  0.00  0.00    +0.150 HD
ATOM     43  O   SER A   5       2.088   2.581  24.281  0.00  0.00    -0.274 OA
BRANCH  41  44
ATOM     44  CA  LYS A   6       4.213   3.837  22.909  0.00  0.00    +0.159 C 
BRANCH  44  45
ATOM     45  C   LYS A   6       5.718   4.043  22.675  0.00  0.00    +0.234 C 
ATOM     46  O   LYS A   6       6.208   5.160  22.520  0.00  0.00    -0.274 OA
ATOM     47  N   MET A   7       6.458   2.891  22.613  0.00  0.00    -0.302 N 
ATOM     48  H   MET A   7       6.014   1.985  22.736  0.00  0.00    +0.150 HD
BRANCH  47  49
ATOM     49  CA  MET A   7       7.879   2.876  22.278  0.00  0.00    +0.160 C 
BRANCH  49  50
ATOM     50  C   MET A   7       8.118   1.575  21.479  0.00  0.00    +0.234 C 
ATOM     51  N   SER A   8       7.020   1.074  20.823  0.00  0.00    -0.302 N 
ATOM     52  H   SER A   8       6.180   1.648  20.736  0.00  0.00    +0.150 HD
ATOM     53  O   MET A   7       9.212   1.006  21.459  0.00  0.00    -0.274 OA
BRANCH  51  54
ATOM     54  CA  SER A   8       7.116  -0.024  19.857  0.00  0.00    +0.161 C 
BRANCH  54  55
ATOM     55  C   SER A   8       7.061   0.584  18.464  0.00  0.00    +0.247 C 
ATOM     56  O   SER A   8       6.113   0.403  17.700  0.00  0.00    -0.299 OA
ENDBRANCH  54  55
BRANCH  54  57
ATOM     57  CB  SER A   8       6.002  -1.063  20.016  0.00  0.00    +0.185 C 
BRANCH  57  58
ATOM     58  OG  SER A   8       5.955  -1.587  21.343  0.00  0.00    -0.393 OA
ATOM     59  H   SER A   8       6.658  -1.140  21.850  0.00  0.00    +0.209 HD
ENDBRANCH  57  58
ENDBRANCH  54  57
ENDBRANCH  51  54
ENDBRANCH  49  50
BRANCH  49  60
ATOM     60  CB  MET A   7       8.760   2.929  23.531  0.00  0.00    +0.042 C 
BRANCH  60  61
ATOM     61  CG  MET A   7       9.338   4.323  23.774  0.00  0.00    +0.071 C 
BRANCH  61  62
ATOM     62  SD  MET A   7       8.560   5.065  25.241  0.00  0.00    -0.164 S 
ATOM     63  CE  MET A   7       7.728   3.587  25.878  0.00  0.00    +0.084 C 
ENDBRANCH  61  62
ENDBRANCH  60  61
ENDBRANCH  49  60
ENDBRANCH  47  49
ENDBRANCH  44  45
BRANCH  44  64
ATOM     64  CB  LYS A   6       3.395   4.985  22.293  0.00  0.00    +0.032 C 
BRANCH  64  65
ATOM     65  CG  LYS A   6       2.362   4.519  21.262  0.00  0.00    +0.007 C 
BRANCH  65  66
ATOM     66  CD  LYS A   6       2.455   3.011  21.019  0.00  0.00    +0.051 C 
BRANCH  66  67
ATOM     67  CE  LYS A   6       2.616   2.707  19.536  0.00  0.00    +0.127 C 
BRANCH  67  68
ATOM     68  NZ  LYS A   6       3.908   2.011  19.323  0.00  0.00    +0.219 N 
ATOM     69  HZ1 LYS A   6       3.864   1.028  19.625  0.00  0.00    +0.199 HD
ATOM     70  HZ2 LYS A   6       4.664   2.463  19.854  0.00  0.00    +0.199 HD
ATOM     71  HZ3 LYS A   6       4.183   2.018  18.332  0.00  0.00    +0.199 HD
ENDBRANCH  67  68
ENDBRANCH  66  67
ENDBRANCH  65  66
ENDBRANCH  64  65
ENDBRANCH  44  64
ENDBRANCH  41  44
ENDBRANCH  39  40
BRANCH  39  72
ATOM     72  CB  SER A   5       3.300   4.512  27.033  0.00  0.00    +0.187 C 
BRANCH  72  73
ATOM     73  OG  SER A   5       4.414   4.476  27.926  0.00  0.00    -0.393 OA
ATOM     74  H   SER A   5       4.966   3.720  27.655  0.00  0.00    +0.209 HD
ENDBRANCH  72  73
ENDBRANCH  39  72
ENDBRANCH   3  39
TORSDOF 34
ENDMDL
MODEL 16
REMARK VINA RESULT:      -5.5      2.005      3.235
REMARK  Name = ATVQSKMS-mmff94.pdb
REMARK  39 active torsions:
REMARK  status: ('A' for Active; 'I' for Inactive)
REMARK    1  A    between atoms: _1  and  _2
REMARK    2  A    between atoms: _2  and  _3
REMARK    3  A    between atoms: _2  and  _5
REMARK    4  A    between atoms: _11  and  _12
REMARK    5  A    between atoms: _12  and  _13
REMARK    6  A    between atoms: _12  and  _15
REMARK    7  A    between atoms: _15  and  _16
REMARK    8  A    between atoms: _15  and  _17
REMARK    9  A    between atoms: _25  and  _26
REMARK   10  A    between atoms: _26  and  _27
REMARK   11  A    between atoms: _26  and  _29
REMARK   12  A    between atoms: _29  and  _30
REMARK   13  A    between atoms: _29  and  _31
REMARK   14  A    between atoms: _41  and  _42
REMARK   15  A    between atoms: _42  and  _43
REMARK   16  A    between atoms: _42  and  _45
REMARK   17  A    between atoms: _45  and  _46
REMARK   18  A    between atoms: _46  and  _47
REMARK   19  A    between atoms: _58  and  _59
REMARK   20  A    between atoms: _59  and  _60
REMARK   21  A    between atoms: _59  and  _62
REMARK   22  A    between atoms: _62  and  _63
REMARK   23  A    between atoms: _69  and  _70
REMARK   24  A    between atoms: _70  and  _71
REMARK   25  A    between atoms: _70  and  _73
REMARK   26  A    between atoms: _73  and  _74
REMARK   27  A    between atoms: _74  and  _75
REMARK   28  A    between atoms: _75  and  _76
REMARK   29  A    between atoms: _76  and  _77
REMARK   30  A    between atoms: _91  and  _92
REMARK   31  A    between atoms: _92  and  _93
REMARK   32  A    between atoms: _92  and  _95
REMARK   33  A    between atoms: _95  and  _96
REMARK   34  A    between atoms: _96  and  _97
REMARK   35  A    between atoms: _97  and  _98
REMARK   36  A    between atoms: _108  and  _109
REMARK   37  A    between atoms: _109  and  _110
REMARK   38  A    between atoms: _109  and  _112
REMARK   39  A    between atoms: _112  and  _113
REMARK                            x       y       z     vdW  Elec       q    Type
REMARK                         _______ _______ _______ _____ _____    ______ ____
ROOT
ATOM      1  C   GLN A   4       3.086  -2.362  28.414  0.00  0.00    +0.234 C 
ATOM      2  O   GLN A   4       1.982  -1.878  28.163  0.00  0.00    -0.274 OA
ATOM      3  N   SER A   5       4.156  -1.587  28.768  0.00  0.00    -0.301 N 
ATOM      4  H   SER A   5       5.064  -1.993  28.980  0.00  0.00    +0.150 HD
ENDROOT
BRANCH   1   5
ATOM      5  CA  GLN A   4       3.362  -3.872  28.294  0.00  0.00    +0.159 C 
BRANCH   5   7
ATOM      6  C   VAL A   3       3.960  -3.615  25.891  0.00  0.00    +0.234 C 
ATOM      7  N   GLN A   4       3.198  -4.191  26.878  0.00  0.00    -0.302 N 
ATOM      8  H   GLN A   4       2.496  -4.891  26.644  0.00  0.00    +0.150 HD
ATOM      9  O   VAL A   3       4.799  -2.748  26.134  0.00  0.00    -0.274 OA
BRANCH   6  10
ATOM     10  CA  VAL A   3       3.707  -4.155  24.464  0.00  0.00    +0.161 C 
BRANCH  10  13
ATOM     11  C   THR A   2       5.686  -3.781  22.994  0.00  0.00    +0.236 C 
ATOM     12  O   THR A   2       5.209  -2.766  22.488  0.00  0.00    -0.274 OA
ATOM     13  N   VAL A   3       5.028  -4.517  23.950  0.00  0.00    -0.302 N 
ATOM     14  H   VAL A   3       5.478  -5.321  24.378  0.00  0.00    +0.150 HD
BRANCH  11  15
ATOM     15  CA  THR A   2       7.082  -4.299  22.622  0.00  0.00    +0.187 C 
BRANCH  15  17
ATOM     16  C   ALA A   1       8.824  -4.566  24.371  0.00  0.00    +0.230 C 
ATOM     17  N   THR A   2       7.619  -4.939  23.826  0.00  0.00    -0.301 N 
ATOM     18  H   THR A   2       7.133  -5.759  24.170  0.00  0.00    +0.150 HD
ATOM     19  O   ALA A   1       9.465  -3.588  23.992  0.00  0.00    -0.274 OA
BRANCH  16  20
ATOM     20  CA  ALA A   1       9.300  -5.464  25.530  0.00  0.00    +0.135 C 
ATOM     21  CB  ALA A   1       8.646  -5.015  26.830  0.00  0.00    +0.033 C 
BRANCH  20  22
ATOM     22  N   ALA A   1      10.769  -5.391  25.646  0.00  0.00    -0.320 NA
ATOM     23  H1  ALA A   1      11.156  -5.344  24.701  0.00  0.00    +0.119 HD
ATOM     24  H2  ALA A   1      10.993  -4.472  26.041  0.00  0.00    +0.119 HD
ENDBRANCH  20  22
ENDBRANCH  16  20
ENDBRANCH  15  17
BRANCH  15  25
ATOM     25  CB  THR A   2       6.961  -5.306  21.453  0.00  0.00    +0.141 C 
ATOM     26  CG2 THR A   2       6.705  -6.732  21.933  0.00  0.00    +0.040 C 
BRANCH  25  27
ATOM     27  OG1 THR A   2       5.880  -4.935  20.590  0.00  0.00    -0.390 OA
ATOM     28  HG1 THR A   2       6.123  -5.171  19.679  0.00  0.00    +0.210 HD
ENDBRANCH  25  27
ENDBRANCH  15  25
ENDBRANCH  11  15
ENDBRANCH  10  13
BRANCH  10  29
ATOM     29  CB  VAL A   3       2.748  -5.370  24.456  0.00  0.00    +0.012 C 
ATOM     30  CG2 VAL A   3       1.652  -5.252  23.391  0.00  0.00    +0.009 C 
ATOM     31  CG1 VAL A   3       3.510  -6.684  24.224  0.00  0.00    +0.009 C 
ENDBRANCH  10  29
ENDBRANCH   6  10
ENDBRANCH   5   7
BRANCH   5  32
ATOM     32  CB  GLN A   4       4.784  -4.211  28.760  0.00  0.00    +0.041 C 
BRANCH  32  33
ATOM     33  CG  GLN A   4       4.898  -5.596  29.400  0.00  0.00    +0.098 C 
BRANCH  33  34
ATOM     34  CD  GLN A   4       5.609  -6.597  28.513  0.00  0.00    +0.211 C 
ATOM     35  OE1 GLN A   4       5.307  -6.773  27.337  0.00  0.00    -0.276 OA
ATOM     36  NE2 GLN A   4       6.644  -7.271  29.082  0.00  0.00    -0.329 N 
ATOM     37 HE21 GLN A   4       6.992  -7.082  30.012  0.00  0.00    +0.145 HD
ATOM     38 HE22 GLN A   4       7.161  -7.921  28.503  0.00  0.00    +0.145 HD
ENDBRANCH  33  34
ENDBRANCH  32  33
ENDBRANCH   5  32
ENDBRANCH   1   5
BRANCH   3  39
ATOM     39  CA  SER A   5       4.102  -0.127  28.705  0.00  0.00    +0.184 C 
BRANCH  39  40
ATOM     40  C   SER A   5       5.395   0.362  28.035  0.00  0.00    +0.236 C 
ATOM     41  N   LYS A   6       5.496   0.092  26.693  0.00  0.00    -0.302 N 
ATOM     42  H   LYS A   6       4.775  -0.443  26.214  0.00  0.00    +0.150 HD
ATOM     43  O   SER A   5       6.288   0.934  28.664  0.00  0.00    -0.274 OA
BRANCH  41  44
ATOM     44  CA  LYS A   6       6.633   0.526  25.892  0.00  0.00    +0.159 C 
BRANCH  44  45
ATOM     45  C   LYS A   6       6.047   1.312  24.708  0.00  0.00    +0.234 C 
ATOM     46  O   LYS A   6       4.836   1.486  24.576  0.00  0.00    -0.274 OA
ATOM     47  N   MET A   7       6.967   1.765  23.800  0.00  0.00    -0.302 N 
ATOM     48  H   MET A   7       7.959   1.592  23.940  0.00  0.00    +0.150 HD
BRANCH  47  49
ATOM     49  CA  MET A   7       6.594   2.424  22.551  0.00  0.00    +0.160 C 
BRANCH  49  50
ATOM     50  C   MET A   7       7.108   1.512  21.414  0.00  0.00    +0.234 C 
ATOM     51  N   SER A   8       6.138   0.850  20.704  0.00  0.00    -0.302 N 
ATOM     52  H   SER A   8       5.159   1.113  20.822  0.00  0.00    +0.150 HD
ATOM     53  O   MET A   7       8.310   1.364  21.183  0.00  0.00    -0.274 OA
BRANCH  51  54
ATOM     54  CA  SER A   8       6.432   0.115  19.470  0.00  0.00    +0.161 C 
BRANCH  54  55
ATOM     55  C   SER A   8       5.763   0.858  18.324  0.00  0.00    +0.247 C 
ATOM     56  O   SER A   8       6.330   1.071  17.252  0.00  0.00    -0.299 OA
ENDBRANCH  54  55
BRANCH  54  57
ATOM     57  CB  SER A   8       5.946  -1.337  19.504  0.00  0.00    +0.185 C 
BRANCH  57  58
ATOM     58  OG  SER A   8       5.581  -1.801  18.204  0.00  0.00    -0.393 OA
ATOM     59  H   SER A   8       5.228  -2.703  18.313  0.00  0.00    +0.209 HD
ENDBRANCH  57  58
ENDBRANCH  54  57
ENDBRANCH  51  54
ENDBRANCH  49  50
BRANCH  49  60
ATOM     60  CB  MET A   7       7.193   3.832  22.450  0.00  0.00    +0.042 C 
BRANCH  60  61
ATOM     61  CG  MET A   7       8.025   4.197  23.680  0.00  0.00    +0.071 C 
BRANCH  61  62
ATOM     62  SD  MET A   7       8.764   5.843  23.455  0.00  0.00    -0.164 S 
ATOM     63  CE  MET A   7      10.428   5.475  24.068  0.00  0.00    +0.084 C 
ENDBRANCH  61  62
ENDBRANCH  60  61
ENDBRANCH  49  60
ENDBRANCH  47  49
ENDBRANCH  44  45
BRANCH  44  64
ATOM     64  CB  LYS A   6       7.456  -0.678  25.403  0.00  0.00    +0.032 C 
BRANCH  64  65
ATOM     65  CG  LYS A   6       8.934  -0.616  25.802  0.00  0.00    +0.007 C 
BRANCH  65  66
ATOM     66  CD  LYS A   6       9.623   0.612  25.203  0.00  0.00    +0.051 C 
BRANCH  66  67
ATOM     67  CE  LYS A   6      10.619   0.206  24.126  0.00  0.00    +0.127 C 
BRANCH  67  68
ATOM     68  NZ  LYS A   6       9.922  -0.618  23.109  0.00  0.00    +0.219 N 
ATOM     69  HZ1 LYS A   6       9.604  -0.049  22.313  0.00  0.00    +0.199 HD
ATOM     70  HZ2 LYS A   6       9.094  -1.078  23.509  0.00  0.00    +0.199 HD
ATOM     71  HZ3 LYS A   6      10.533  -1.357  22.737  0.00  0.00    +0.199 HD
ENDBRANCH  67  68
ENDBRANCH  66  67
ENDBRANCH  65  66
ENDBRANCH  64  65
ENDBRANCH  44  64
ENDBRANCH  41  44
ENDBRANCH  39  40
BRANCH  39  72
ATOM     72  CB  SER A   5       3.910   0.510  30.085  0.00  0.00    +0.187 C 
BRANCH  72  73
ATOM     73  OG  SER A   5       3.901   1.936  30.008  0.00  0.00    -0.393 OA
ATOM     74  H   SER A   5       3.029   2.191  29.655  0.00  0.00    +0.209 HD
ENDBRANCH  72  73
ENDBRANCH  39  72
ENDBRANCH   3  39
TORSDOF 34
ENDMDL
MODEL 17
REMARK VINA RESULT:      -5.5      2.263      5.645
REMARK  Name = ATVQSKMS-mmff94.pdb
REMARK  39 active torsions:
REMARK  status: ('A' for Active; 'I' for Inactive)
REMARK    1  A    between atoms: _1  and  _2
REMARK    2  A    between atoms: _2  and  _3
REMARK    3  A    between atoms: _2  and  _5
REMARK    4  A    between atoms: _11  and  _12
REMARK    5  A    between atoms: _12  and  _13
REMARK    6  A    between atoms: _12  and  _15
REMARK    7  A    between atoms: _15  and  _16
REMARK    8  A    between atoms: _15  and  _17
REMARK    9  A    between atoms: _25  and  _26
REMARK   10  A    between atoms: _26  and  _27
REMARK   11  A    between atoms: _26  and  _29
REMARK   12  A    between atoms: _29  and  _30
REMARK   13  A    between atoms: _29  and  _31
REMARK   14  A    between atoms: _41  and  _42
REMARK   15  A    between atoms: _42  and  _43
REMARK   16  A    between atoms: _42  and  _45
REMARK   17  A    between atoms: _45  and  _46
REMARK   18  A    between atoms: _46  and  _47
REMARK   19  A    between atoms: _58  and  _59
REMARK   20  A    between atoms: _59  and  _60
REMARK   21  A    between atoms: _59  and  _62
REMARK   22  A    between atoms: _62  and  _63
REMARK   23  A    between atoms: _69  and  _70
REMARK   24  A    between atoms: _70  and  _71
REMARK   25  A    between atoms: _70  and  _73
REMARK   26  A    between atoms: _73  and  _74
REMARK   27  A    between atoms: _74  and  _75
REMARK   28  A    between atoms: _75  and  _76
REMARK   29  A    between atoms: _76  and  _77
REMARK   30  A    between atoms: _91  and  _92
REMARK   31  A    between atoms: _92  and  _93
REMARK   32  A    between atoms: _92  and  _95
REMARK   33  A    between atoms: _95  and  _96
REMARK   34  A    between atoms: _96  and  _97
REMARK   35  A    between atoms: _97  and  _98
REMARK   36  A    between atoms: _108  and  _109
REMARK   37  A    between atoms: _109  and  _110
REMARK   38  A    between atoms: _109  and  _112
REMARK   39  A    between atoms: _112  and  _113
REMARK                            x       y       z     vdW  Elec       q    Type
REMARK                         _______ _______ _______ _____ _____    ______ ____
ROOT
ATOM      1  C   GLN A   4       8.168  -1.175  21.952  0.00  0.00    +0.234 C 
ATOM      2  O   GLN A   4       9.077  -1.390  21.150  0.00  0.00    -0.274 OA
ATOM      3  N   SER A   5       7.052  -0.459  21.613  0.00  0.00    -0.301 N 
ATOM      4  H   SER A   5       6.301  -0.290  22.278  0.00  0.00    +0.150 HD
ENDROOT
BRANCH   1   5
ATOM      5  CA  GLN A   4       8.242  -1.645  23.417  0.00  0.00    +0.159 C 
BRANCH   5   7
ATOM      6  C   VAL A   3       6.693  -1.253  25.325  0.00  0.00    +0.234 C 
ATOM      7  N   GLN A   4       6.917  -1.396  23.978  0.00  0.00    -0.302 N 
ATOM      8  H   GLN A   4       6.148  -1.309  23.316  0.00  0.00    +0.150 HD
ATOM      9  O   VAL A   3       7.593  -1.378  26.156  0.00  0.00    -0.274 OA
BRANCH   6  10
ATOM     10  CA  VAL A   3       5.240  -0.895  25.717  0.00  0.00    +0.161 C 
BRANCH  10  13
ATOM     11  C   THR A   2       4.192  -3.137  25.407  0.00  0.00    +0.236 C 
ATOM     12  O   THR A   2       4.212  -3.056  24.180  0.00  0.00    -0.274 OA
ATOM     13  N   VAL A   3       4.661  -2.138  26.227  0.00  0.00    -0.302 N 
ATOM     14  H   VAL A   3       4.672  -2.265  27.235  0.00  0.00    +0.150 HD
BRANCH  11  15
ATOM     15  CA  THR A   2       3.667  -4.382  26.135  0.00  0.00    +0.187 C 
BRANCH  15  17
ATOM     16  C   ALA A   1       5.104  -6.142  27.134  0.00  0.00    +0.230 C 
ATOM     17  N   THR A   2       4.741  -4.821  27.029  0.00  0.00    -0.301 N 
ATOM     18  H   THR A   2       5.121  -4.133  27.669  0.00  0.00    +0.150 HD
ATOM     19  O   ALA A   1       4.671  -7.024  26.395  0.00  0.00    -0.274 OA
BRANCH  16  20
ATOM     20  CA  ALA A   1       6.133  -6.430  28.246  0.00  0.00    +0.135 C 
ATOM     21  CB  ALA A   1       5.658  -5.820  29.557  0.00  0.00    +0.033 C 
BRANCH  20  22
ATOM     22  N   ALA A   1       7.444  -5.869  27.867  0.00  0.00    -0.320 NA
ATOM     23  H1  ALA A   1       7.312  -5.306  27.024  0.00  0.00    +0.119 HD
ATOM     24  H2  ALA A   1       7.691  -5.175  28.580  0.00  0.00    +0.119 HD
ENDBRANCH  20  22
ENDBRANCH  16  20
ENDBRANCH  15  17
BRANCH  15  25
ATOM     25  CB  THR A   2       2.389  -4.012  26.926  0.00  0.00    +0.141 C 
ATOM     26  CG2 THR A   2       1.455  -5.204  27.121  0.00  0.00    +0.040 C 
BRANCH  25  27
ATOM     27  OG1 THR A   2       2.735  -3.513  28.223  0.00  0.00    -0.390 OA
ATOM     28  HG1 THR A   2       3.264  -2.705  28.108  0.00  0.00    +0.210 HD
ENDBRANCH  25  27
ENDBRANCH  15  25
ENDBRANCH  11  15
ENDBRANCH  10  13
BRANCH  10  29
ATOM     29  CB  VAL A   3       5.177   0.231  26.777  0.00  0.00    +0.012 C 
ATOM     30  CG2 VAL A   3       4.143   1.309  26.435  0.00  0.00    +0.009 C 
ATOM     31  CG1 VAL A   3       4.852  -0.328  28.170  0.00  0.00    +0.009 C 
ENDBRANCH  10  29
ENDBRANCH   6  10
ENDBRANCH   5   7
BRANCH   5  32
ATOM     32  CB  GLN A   4       8.589  -3.138  23.499  0.00  0.00    +0.041 C 
BRANCH  32  33
ATOM     33  CG  GLN A   4       7.480  -4.048  22.971  0.00  0.00    +0.098 C 
BRANCH  33  34
ATOM     34  CD  GLN A   4       6.954  -5.005  24.020  0.00  0.00    +0.211 C 
ATOM     35  OE1 GLN A   4       7.409  -5.056  25.159  0.00  0.00    -0.276 OA
ATOM     36  NE2 GLN A   4       5.908  -5.788  23.645  0.00  0.00    -0.329 N 
ATOM     37 HE21 GLN A   4       5.438  -5.706  22.754  0.00  0.00    +0.145 HD
ATOM     38 HE22 GLN A   4       5.512  -6.413  24.337  0.00  0.00    +0.145 HD
ENDBRANCH  33  34
ENDBRANCH  32  33
ENDBRANCH   5  32
ENDBRANCH   1   5
BRANCH   3  39
ATOM     39  CA  SER A   5       6.946   0.236  20.331  0.00  0.00    +0.184 C 
BRANCH  39  40
ATOM     40  C   SER A   5       6.045   1.464  20.536  0.00  0.00    +0.236 C 
ATOM     41  N   LYS A   6       6.297   2.188  21.676  0.00  0.00    -0.302 N 
ATOM     42  H   LYS A   6       6.999   1.881  22.345  0.00  0.00    +0.150 HD
ATOM     43  O   SER A   5       5.146   1.761  19.748  0.00  0.00    -0.274 OA
BRANCH  41  44
ATOM     44  CA  LYS A   6       5.568   3.408  22.002  0.00  0.00    +0.159 C 
BRANCH  44  45
ATOM     45  C   LYS A   6       6.592   4.357  22.645  0.00  0.00    +0.234 C 
ATOM     46  O   LYS A   6       7.102   5.286  22.020  0.00  0.00    -0.274 OA
ATOM     47  N   MET A   7       6.919   4.066  23.943  0.00  0.00    -0.302 N 
ATOM     48  H   MET A   7       6.481   3.283  24.422  0.00  0.00    +0.150 HD
BRANCH  47  49
ATOM     49  CA  MET A   7       7.959   4.777  24.680  0.00  0.00    +0.160 C 
BRANCH  49  50
ATOM     50  C   MET A   7       9.301   4.140  24.252  0.00  0.00    +0.234 C 
ATOM     51  N   SER A   8       9.370   2.774  24.366  0.00  0.00    -0.302 N 
ATOM     52  H   SER A   8       8.517   2.239  24.542  0.00  0.00    +0.150 HD
ATOM     53  O   MET A   7      10.256   4.817  23.865  0.00  0.00    -0.274 OA
BRANCH  51  54
ATOM     54  CA  SER A   8      10.480   1.994  23.812  0.00  0.00    +0.161 C 
BRANCH  54  55
ATOM     55  C   SER A   8      10.141   1.679  22.363  0.00  0.00    +0.247 C 
ATOM     56  O   SER A   8       9.133   2.118  21.809  0.00  0.00    -0.299 OA
ENDBRANCH  54  55
BRANCH  54  57
ATOM     57  CB  SER A   8      10.745   0.695  24.580  0.00  0.00    +0.185 C 
BRANCH  57  58
ATOM     58  OG  SER A   8       9.829   0.526  25.662  0.00  0.00    -0.393 OA
ATOM     59  H   SER A   8       9.490   1.412  25.888  0.00  0.00    +0.209 HD
ENDBRANCH  57  58
ENDBRANCH  54  57
ENDBRANCH  51  54
ENDBRANCH  49  50
BRANCH  49  60
ATOM     60  CB  MET A   7       7.753   4.675  26.196  0.00  0.00    +0.042 C 
BRANCH  60  61
ATOM     61  CG  MET A   7       6.316   4.305  26.562  0.00  0.00    +0.071 C 
BRANCH  61  62
ATOM     62  SD  MET A   7       6.134   4.257  28.371  0.00  0.00    -0.164 S 
ATOM     63  CE  MET A   7       4.331   4.392  28.462  0.00  0.00    +0.084 C 
ENDBRANCH  61  62
ENDBRANCH  60  61
ENDBRANCH  49  60
ENDBRANCH  47  49
ENDBRANCH  44  45
BRANCH  44  64
ATOM     64  CB  LYS A   6       4.405   3.115  22.965  0.00  0.00    +0.032 C 
BRANCH  64  65
ATOM     65  CG  LYS A   6       3.090   3.791  22.564  0.00  0.00    +0.007 C 
BRANCH  65  66
ATOM     66  CD  LYS A   6       2.400   3.041  21.423  0.00  0.00    +0.051 C 
BRANCH  66  67
ATOM     67  CE  LYS A   6       2.204   3.946  20.216  0.00  0.00    +0.127 C 
BRANCH  67  68
ATOM     68  NZ  LYS A   6       2.754   3.273  19.013  0.00  0.00    +0.219 N 
ATOM     69  HZ1 LYS A   6       2.037   3.152  18.285  0.00  0.00    +0.199 HD
ATOM     70  HZ2 LYS A   6       3.118   2.340  19.245  0.00  0.00    +0.199 HD
ATOM     71  HZ3 LYS A   6       3.528   3.810  18.600  0.00  0.00    +0.199 HD
ENDBRANCH  67  68
ENDBRANCH  66  67
ENDBRANCH  65  66
ENDBRANCH  64  65
ENDBRANCH  44  64
ENDBRANCH  41  44
ENDBRANCH  39  40
BRANCH  39  72
ATOM     72  CB  SER A   5       6.413  -0.669  19.216  0.00  0.00    +0.187 C 
BRANCH  72  73
ATOM     73  OG  SER A   5       5.197  -1.312  19.601  0.00  0.00    -0.393 OA
ATOM     74  H   SER A   5       4.663  -0.644  20.068  0.00  0.00    +0.209 HD
ENDBRANCH  72  73
ENDBRANCH  39  72
ENDBRANCH   3  39
TORSDOF 34
ENDMDL
MODEL 18
REMARK VINA RESULT:      -5.5      2.965      7.396
REMARK  Name = ATVQSKMS-mmff94.pdb
REMARK  39 active torsions:
REMARK  status: ('A' for Active; 'I' for Inactive)
REMARK    1  A    between atoms: _1  and  _2
REMARK    2  A    between atoms: _2  and  _3
REMARK    3  A    between atoms: _2  and  _5
REMARK    4  A    between atoms: _11  and  _12
REMARK    5  A    between atoms: _12  and  _13
REMARK    6  A    between atoms: _12  and  _15
REMARK    7  A    between atoms: _15  and  _16
REMARK    8  A    between atoms: _15  and  _17
REMARK    9  A    between atoms: _25  and  _26
REMARK   10  A    between atoms: _26  and  _27
REMARK   11  A    between atoms: _26  and  _29
REMARK   12  A    between atoms: _29  and  _30
REMARK   13  A    between atoms: _29  and  _31
REMARK   14  A    between atoms: _41  and  _42
REMARK   15  A    between atoms: _42  and  _43
REMARK   16  A    between atoms: _42  and  _45
REMARK   17  A    between atoms: _45  and  _46
REMARK   18  A    between atoms: _46  and  _47
REMARK   19  A    between atoms: _58  and  _59
REMARK   20  A    between atoms: _59  and  _60
REMARK   21  A    between atoms: _59  and  _62
REMARK   22  A    between atoms: _62  and  _63
REMARK   23  A    between atoms: _69  and  _70
REMARK   24  A    between atoms: _70  and  _71
REMARK   25  A    between atoms: _70  and  _73
REMARK   26  A    between atoms: _73  and  _74
REMARK   27  A    between atoms: _74  and  _75
REMARK   28  A    between atoms: _75  and  _76
REMARK   29  A    between atoms: _76  and  _77
REMARK   30  A    between atoms: _91  and  _92
REMARK   31  A    between atoms: _92  and  _93
REMARK   32  A    between atoms: _92  and  _95
REMARK   33  A    between atoms: _95  and  _96
REMARK   34  A    between atoms: _96  and  _97
REMARK   35  A    between atoms: _97  and  _98
REMARK   36  A    between atoms: _108  and  _109
REMARK   37  A    between atoms: _109  and  _110
REMARK   38  A    between atoms: _109  and  _112
REMARK   39  A    between atoms: _112  and  _113
REMARK                            x       y       z     vdW  Elec       q    Type
REMARK                         _______ _______ _______ _____ _____    ______ ____
ROOT
ATOM      1  C   GLN A   4       8.034   1.127  22.779  0.00  0.00    +0.234 C 
ATOM      2  O   GLN A   4       8.484   0.681  23.834  0.00  0.00    -0.274 OA
ATOM      3  N   SER A   5       7.460   2.366  22.699  0.00  0.00    -0.301 N 
ATOM      4  H   SER A   5       7.096   2.733  21.823  0.00  0.00    +0.150 HD
ENDROOT
BRANCH   1   5
ATOM      5  CA  GLN A   4       8.030   0.302  21.479  0.00  0.00    +0.159 C 
BRANCH   5   7
ATOM      6  C   VAL A   3       8.442  -2.089  22.037  0.00  0.00    +0.234 C 
ATOM      7  N   GLN A   4       7.580  -1.034  21.862  0.00  0.00    -0.302 N 
ATOM      8  H   GLN A   4       6.581  -1.153  22.020  0.00  0.00    +0.150 HD
ATOM      9  O   VAL A   3       9.652  -1.988  21.831  0.00  0.00    -0.274 OA
BRANCH   6  10
ATOM     10  CA  VAL A   3       7.788  -3.397  22.540  0.00  0.00    +0.161 C 
BRANCH  10  13
ATOM     11  C   THR A   2       8.456  -3.899  24.890  0.00  0.00    +0.236 C 
ATOM     12  O   THR A   2       9.328  -4.696  24.547  0.00  0.00    -0.274 OA
ATOM     13  N   VAL A   3       7.661  -3.232  23.988  0.00  0.00    -0.302 N 
ATOM     14  H   VAL A   3       6.985  -2.545  24.310  0.00  0.00    +0.150 HD
BRANCH  11  15
ATOM     15  CA  THR A   2       8.199  -3.553  26.363  0.00  0.00    +0.187 C 
BRANCH  15  17
ATOM     16  C   ALA A   1       7.870  -1.126  26.766  0.00  0.00    +0.230 C 
ATOM     17  N   THR A   2       7.373  -2.343  26.364  0.00  0.00    -0.301 N 
ATOM     18  H   THR A   2       6.383  -2.459  26.185  0.00  0.00    +0.150 HD
ATOM     19  O   ALA A   1       9.058  -0.925  27.007  0.00  0.00    -0.274 OA
BRANCH  16  20
ATOM     20  CA  ALA A   1       6.810  -0.010  26.860  0.00  0.00    +0.135 C 
ATOM     21  CB  ALA A   1       5.827  -0.135  25.704  0.00  0.00    +0.033 C 
BRANCH  20  22
ATOM     22  N   ALA A   1       7.471   1.308  26.827  0.00  0.00    -0.320 NA
ATOM     23  H1  ALA A   1       8.481   1.151  26.786  0.00  0.00    +0.119 HD
ATOM     24  H2  ALA A   1       7.259   1.728  25.917  0.00  0.00    +0.119 HD
ENDBRANCH  20  22
ENDBRANCH  16  20
ENDBRANCH  15  17
BRANCH  15  25
ATOM     25  CB  THR A   2       7.471  -4.735  27.047  0.00  0.00    +0.141 C 
ATOM     26  CG2 THR A   2       6.099  -5.011  26.438  0.00  0.00    +0.040 C 
BRANCH  25  27
ATOM     27  OG1 THR A   2       8.249  -5.932  26.929  0.00  0.00    -0.390 OA
ATOM     28  HG1 THR A   2       7.643  -6.693  26.951  0.00  0.00    +0.210 HD
ENDBRANCH  25  27
ENDBRANCH  15  25
ENDBRANCH  11  15
ENDBRANCH  10  13
BRANCH  10  29
ATOM     29  CB  VAL A   3       6.411  -3.658  21.881  0.00  0.00    +0.012 C 
ATOM     30  CG2 VAL A   3       6.285  -5.078  21.318  0.00  0.00    +0.009 C 
ATOM     31  CG1 VAL A   3       5.262  -3.425  22.873  0.00  0.00    +0.009 C 
ENDBRANCH  10  29
ENDBRANCH   6  10
ENDBRANCH   5   7
BRANCH   5  32
ATOM     32  CB  GLN A   4       7.078   0.912  20.441  0.00  0.00    +0.041 C 
BRANCH  32  33
ATOM     33  CG  GLN A   4       7.313   0.392  19.022  0.00  0.00    +0.098 C 
BRANCH  33  34
ATOM     34  CD  GLN A   4       6.032   0.256  18.226  0.00  0.00    +0.211 C 
ATOM     35  OE1 GLN A   4       5.807  -0.701  17.490  0.00  0.00    -0.276 OA
ATOM     36  NE2 GLN A   4       5.111   1.240  18.401  0.00  0.00    -0.329 N 
ATOM     37 HE21 GLN A   4       5.212   1.989  19.073  0.00  0.00    +0.145 HD
ATOM     38 HE22 GLN A   4       4.230   1.159  17.908  0.00  0.00    +0.145 HD
ENDBRANCH  33  34
ENDBRANCH  32  33
ENDBRANCH   5  32
ENDBRANCH   1   5
BRANCH   3  39
ATOM     39  CA  SER A   5       7.194   3.168  23.893  0.00  0.00    +0.184 C 
BRANCH  39  40
ATOM     40  C   SER A   5       5.845   3.876  23.691  0.00  0.00    +0.236 C 
ATOM     41  N   LYS A   6       4.757   3.217  24.210  0.00  0.00    -0.302 N 
ATOM     42  H   LYS A   6       4.859   2.303  24.644  0.00  0.00    +0.150 HD
ATOM     43  O   SER A   5       5.745   4.944  23.085  0.00  0.00    -0.274 OA
BRANCH  41  44
ATOM     44  CA  LYS A   6       3.409   3.769  24.150  0.00  0.00    +0.159 C 
BRANCH  44  45
ATOM     45  C   LYS A   6       2.715   3.343  25.454  0.00  0.00    +0.234 C 
ATOM     46  O   LYS A   6       1.558   3.669  25.715  0.00  0.00    -0.274 OA
ATOM     47  N   MET A   7       3.494   2.614  26.314  0.00  0.00    -0.302 N 
ATOM     48  H   MET A   7       4.450   2.373  26.066  0.00  0.00    +0.150 HD
BRANCH  47  49
ATOM     49  CA  MET A   7       3.053   2.224  27.650  0.00  0.00    +0.160 C 
BRANCH  49  50
ATOM     50  C   MET A   7       3.810   3.142  28.637  0.00  0.00    +0.234 C 
ATOM     51  N   SER A   8       5.154   2.893  28.764  0.00  0.00    -0.302 N 
ATOM     52  H   SER A   8       5.616   2.269  28.100  0.00  0.00    +0.150 HD
ATOM     53  O   MET A   7       3.238   4.018  29.290  0.00  0.00    -0.274 OA
BRANCH  51  54
ATOM     54  CA  SER A   8       6.055   3.793  29.489  0.00  0.00    +0.161 C 
BRANCH  54  55
ATOM     55  C   SER A   8       6.757   4.666  28.460  0.00  0.00    +0.247 C 
ATOM     56  O   SER A   8       7.427   4.195  27.541  0.00  0.00    -0.299 OA
ENDBRANCH  54  55
BRANCH  54  57
ATOM     57  CB  SER A   8       7.092   3.051  30.338  0.00  0.00    +0.185 C 
BRANCH  57  58
ATOM     58  OG  SER A   8       7.926   2.213  29.537  0.00  0.00    -0.393 OA
ATOM     59  H   SER A   8       8.554   2.797  29.073  0.00  0.00    +0.209 HD
ENDBRANCH  57  58
ENDBRANCH  54  57
ENDBRANCH  51  54
ENDBRANCH  49  50
BRANCH  49  60
ATOM     60  CB  MET A   7       3.339   0.745  27.935  0.00  0.00    +0.042 C 
BRANCH  60  61
ATOM     61  CG  MET A   7       2.175  -0.159  27.530  0.00  0.00    +0.071 C 
BRANCH  61  62
ATOM     62  SD  MET A   7       2.161  -1.649  28.573  0.00  0.00    -0.164 S 
ATOM     63  CE  MET A   7       1.922  -0.848  30.179  0.00  0.00    +0.084 C 
ENDBRANCH  61  62
ENDBRANCH  60  61
ENDBRANCH  49  60
ENDBRANCH  47  49
ENDBRANCH  44  45
BRANCH  44  64
ATOM     64  CB  LYS A   6       2.651   3.239  22.921  0.00  0.00    +0.032 C 
BRANCH  64  65
ATOM     65  CG  LYS A   6       2.304   4.325  21.898  0.00  0.00    +0.007 C 
BRANCH  65  66
ATOM     66  CD  LYS A   6       1.593   3.737  20.677  0.00  0.00    +0.051 C 
BRANCH  66  67
ATOM     67  CE  LYS A   6       1.850   4.581  19.437  0.00  0.00    +0.127 C 
BRANCH  67  68
ATOM     68  NZ  LYS A   6       2.500   3.738  18.405  0.00  0.00    +0.219 N 
ATOM     69  HZ1 LYS A   6       3.512   3.650  18.569  0.00  0.00    +0.199 HD
ATOM     70  HZ2 LYS A   6       2.374   4.139  17.466  0.00  0.00    +0.199 HD
ATOM     71  HZ3 LYS A   6       2.106   2.788  18.388  0.00  0.00    +0.199 HD
ENDBRANCH  67  68
ENDBRANCH  66  67
ENDBRANCH  65  66
ENDBRANCH  64  65
ENDBRANCH  44  64
ENDBRANCH  41  44
ENDBRANCH  39  40
BRANCH  39  72
ATOM     72  CB  SER A   5       8.314   4.171  24.185  0.00  0.00    +0.187 C 
BRANCH  72  73
ATOM     73  OG  SER A   5       8.740   4.842  22.999  0.00  0.00    -0.393 OA
ATOM     74  H   SER A   5       9.714   4.866  23.024  0.00  0.00    +0.209 HD
ENDBRANCH  72  73
ENDBRANCH  39  72
ENDBRANCH   3  39
TORSDOF 34
ENDMDL
MODEL 19
REMARK VINA RESULT:      -5.5      2.150      4.598
REMARK  Name = ATVQSKMS-mmff94.pdb
REMARK  39 active torsions:
REMARK  status: ('A' for Active; 'I' for Inactive)
REMARK    1  A    between atoms: _1  and  _2
REMARK    2  A    between atoms: _2  and  _3
REMARK    3  A    between atoms: _2  and  _5
REMARK    4  A    between atoms: _11  and  _12
REMARK    5  A    between atoms: _12  and  _13
REMARK    6  A    between atoms: _12  and  _15
REMARK    7  A    between atoms: _15  and  _16
REMARK    8  A    between atoms: _15  and  _17
REMARK    9  A    between atoms: _25  and  _26
REMARK   10  A    between atoms: _26  and  _27
REMARK   11  A    between atoms: _26  and  _29
REMARK   12  A    between atoms: _29  and  _30
REMARK   13  A    between atoms: _29  and  _31
REMARK   14  A    between atoms: _41  and  _42
REMARK   15  A    between atoms: _42  and  _43
REMARK   16  A    between atoms: _42  and  _45
REMARK   17  A    between atoms: _45  and  _46
REMARK   18  A    between atoms: _46  and  _47
REMARK   19  A    between atoms: _58  and  _59
REMARK   20  A    between atoms: _59  and  _60
REMARK   21  A    between atoms: _59  and  _62
REMARK   22  A    between atoms: _62  and  _63
REMARK   23  A    between atoms: _69  and  _70
REMARK   24  A    between atoms: _70  and  _71
REMARK   25  A    between atoms: _70  and  _73
REMARK   26  A    between atoms: _73  and  _74
REMARK   27  A    between atoms: _74  and  _75
REMARK   28  A    between atoms: _75  and  _76
REMARK   29  A    between atoms: _76  and  _77
REMARK   30  A    between atoms: _91  and  _92
REMARK   31  A    between atoms: _92  and  _93
REMARK   32  A    between atoms: _92  and  _95
REMARK   33  A    between atoms: _95  and  _96
REMARK   34  A    between atoms: _96  and  _97
REMARK   35  A    between atoms: _97  and  _98
REMARK   36  A    between atoms: _108  and  _109
REMARK   37  A    between atoms: _109  and  _110
REMARK   38  A    between atoms: _109  and  _112
REMARK   39  A    between atoms: _112  and  _113
REMARK                            x       y       z     vdW  Elec       q    Type
REMARK                         _______ _______ _______ _____ _____    ______ ____
ROOT
ATOM      1  C   GLN A   4       8.165  -1.637  26.537  0.00  0.00    +0.234 C 
ATOM      2  O   GLN A   4       9.026  -1.064  27.204  0.00  0.00    -0.274 OA
ATOM      3  N   SER A   5       7.046  -0.992  26.085  0.00  0.00    -0.301 N 
ATOM      4  H   SER A   5       6.341  -1.469  25.529  0.00  0.00    +0.150 HD
ENDROOT
BRANCH   1   5
ATOM      5  CA  GLN A   4       8.251  -3.139  26.209  0.00  0.00    +0.159 C 
BRANCH   5   7
ATOM      6  C   VAL A   3       6.834  -4.939  27.182  0.00  0.00    +0.234 C 
ATOM      7  N   GLN A   4       6.962  -3.702  26.600  0.00  0.00    -0.302 N 
ATOM      8  H   GLN A   4       6.141  -3.120  26.443  0.00  0.00    +0.150 HD
ATOM      9  O   VAL A   3       7.801  -5.680  27.364  0.00  0.00    -0.274 OA
BRANCH   6  10
ATOM     10  CA  VAL A   3       5.399  -5.318  27.616  0.00  0.00    +0.161 C 
BRANCH  10  13
ATOM     11  C   THR A   2       3.883  -4.725  25.728  0.00  0.00    +0.236 C 
ATOM     12  O   THR A   2       3.686  -3.586  26.150  0.00  0.00    -0.274 OA
ATOM     13  N   VAL A   3       4.690  -5.630  26.375  0.00  0.00    -0.302 N 
ATOM     14  H   VAL A   3       4.866  -6.543  25.967  0.00  0.00    +0.150 HD
BRANCH  11  15
ATOM     15  CA  THR A   2       3.267  -5.227  24.415  0.00  0.00    +0.187 C 
BRANCH  15  17
ATOM     16  C   ALA A   1       5.025  -5.160  22.663  0.00  0.00    +0.230 C 
ATOM     17  N   THR A   2       4.359  -5.840  23.655  0.00  0.00    -0.301 N 
ATOM     18  H   THR A   2       4.519  -6.831  23.793  0.00  0.00    +0.150 HD
ATOM     19  O   ALA A   1       4.867  -3.962  22.440  0.00  0.00    -0.274 OA
BRANCH  16  20
ATOM     20  CA  ALA A   1       6.023  -6.022  21.864  0.00  0.00    +0.135 C 
ATOM     21  CB  ALA A   1       7.434  -5.793  22.387  0.00  0.00    +0.033 C 
BRANCH  20  22
ATOM     22  N   ALA A   1       5.946  -5.674  20.433  0.00  0.00    -0.320 NA
ATOM     23  H1  ALA A   1       6.799  -6.011  19.982  0.00  0.00    +0.119 HD
ATOM     24  H2  ALA A   1       5.212  -6.260  20.021  0.00  0.00    +0.119 HD
ENDBRANCH  20  22
ENDBRANCH  16  20
ENDBRANCH  15  17
BRANCH  15  25
ATOM     25  CB  THR A   2       2.152  -6.253  24.732  0.00  0.00    +0.141 C 
ATOM     26  CG2 THR A   2       2.578  -7.689  24.439  0.00  0.00    +0.040 C 
BRANCH  25  27
ATOM     27  OG1 THR A   2       1.789  -6.179  26.115  0.00  0.00    -0.390 OA
ATOM     28  HG1 THR A   2       1.880  -5.255  26.405  0.00  0.00    +0.210 HD
ENDBRANCH  25  27
ENDBRANCH  15  25
ENDBRANCH  11  15
ENDBRANCH  10  13
BRANCH  10  29
ATOM     29  CB  VAL A   3       5.378  -6.520  28.592  0.00  0.00    +0.012 C 
ATOM     30  CG2 VAL A   3       5.943  -6.171  29.974  0.00  0.00    +0.009 C 
ATOM     31  CG1 VAL A   3       3.955  -7.070  28.775  0.00  0.00    +0.009 C 
ENDBRANCH  10  29
ENDBRANCH   6  10
ENDBRANCH   5   7
BRANCH   5  32
ATOM     32  CB  GLN A   4       8.503  -3.362  24.711  0.00  0.00    +0.041 C 
BRANCH  32  33
ATOM     33  CG  GLN A   4       9.876  -2.875  24.248  0.00  0.00    +0.098 C 
BRANCH  33  34
ATOM     34  CD  GLN A   4       9.795  -1.880  23.110  0.00  0.00    +0.211 C 
ATOM     35  OE1 GLN A   4      10.682  -1.758  22.270  0.00  0.00    -0.276 OA
ATOM     36  NE2 GLN A   4       8.653  -1.146  23.037  0.00  0.00    -0.329 N 
ATOM     37 HE21 GLN A   4       7.857  -1.287  23.644  0.00  0.00    +0.145 HD
ATOM     38 HE22 GLN A   4       8.554  -0.497  22.266  0.00  0.00    +0.145 HD
ENDBRANCH  33  34
ENDBRANCH  32  33
ENDBRANCH   5  32
ENDBRANCH   1   5
BRANCH   3  39
ATOM     39  CA  SER A   5       6.722   0.371  26.506  0.00  0.00    +0.184 C 
BRANCH  39  40
ATOM     40  C   SER A   5       5.337   0.719  25.940  0.00  0.00    +0.236 C 
ATOM     41  N   LYS A   6       5.152   2.043  25.624  0.00  0.00    -0.302 N 
ATOM     42  H   LYS A   6       5.878   2.730  25.812  0.00  0.00    +0.150 HD
ATOM     43  O   SER A   5       4.449  -0.124  25.804  0.00  0.00    -0.274 OA
BRANCH  41  44
ATOM     44  CA  LYS A   6       3.915   2.538  25.032  0.00  0.00    +0.159 C 
BRANCH  44  45
ATOM     45  C   LYS A   6       4.274   2.986  23.606  0.00  0.00    +0.234 C 
ATOM     46  O   LYS A   6       3.414   3.238  22.764  0.00  0.00    -0.274 OA
ATOM     47  N   MET A   7       5.617   3.042  23.336  0.00  0.00    -0.302 N 
ATOM     48  H   MET A   7       6.297   2.816  24.057  0.00  0.00    +0.150 HD
BRANCH  47  49
ATOM     49  CA  MET A   7       6.150   3.327  22.007  0.00  0.00    +0.160 C 
BRANCH  49  50
ATOM     50  C   MET A   7       6.692   1.984  21.466  0.00  0.00    +0.234 C 
ATOM     51  N   SER A   8       5.983   1.437  20.425  0.00  0.00    -0.302 N 
ATOM     52  H   SER A   8       5.274   1.997  19.949  0.00  0.00    +0.150 HD
ATOM     53  O   MET A   7       7.676   1.426  21.957  0.00  0.00    -0.274 OA
BRANCH  51  54
ATOM     54  CA  SER A   8       6.472   0.287  19.660  0.00  0.00    +0.161 C 
BRANCH  54  55
ATOM     55  C   SER A   8       6.188   0.559  18.191  0.00  0.00    +0.247 C 
ATOM     56  O   SER A   8       5.764  -0.308  17.427  0.00  0.00    -0.299 OA
ENDBRANCH  54  55
BRANCH  54  57
ATOM     57  CB  SER A   8       5.823  -1.035  20.080  0.00  0.00    +0.185 C 
BRANCH  57  58
ATOM     58  OG  SER A   8       6.224  -1.425  21.394  0.00  0.00    -0.393 OA
ATOM     59  H   SER A   8       7.057  -0.958  21.587  0.00  0.00    +0.209 HD
ENDBRANCH  57  58
ENDBRANCH  54  57
ENDBRANCH  51  54
ENDBRANCH  49  50
BRANCH  49  60
ATOM     60  CB  MET A   7       7.250   4.394  22.052  0.00  0.00    +0.042 C 
BRANCH  60  61
ATOM     61  CG  MET A   7       7.249   5.171  23.368  0.00  0.00    +0.071 C 
BRANCH  61  62
ATOM     62  SD  MET A   7       8.904   5.858  23.678  0.00  0.00    -0.164 S 
ATOM     63  CE  MET A   7       9.815   4.301  23.834  0.00  0.00    +0.084 C 
ENDBRANCH  61  62
ENDBRANCH  60  61
ENDBRANCH  49  60
ENDBRANCH  47  49
ENDBRANCH  44  45
BRANCH  44  64
ATOM     64  CB  LYS A   6       3.341   3.707  25.850  0.00  0.00    +0.032 C 
BRANCH  64  65
ATOM     65  CG  LYS A   6       2.895   3.308  27.261  0.00  0.00    +0.007 C 
BRANCH  65  66
ATOM     66  CD  LYS A   6       3.772   3.963  28.330  0.00  0.00    +0.051 C 
BRANCH  66  67
ATOM     67  CE  LYS A   6       4.089   2.983  29.451  0.00  0.00    +0.127 C 
BRANCH  67  68
ATOM     68  NZ  LYS A   6       3.788   1.606  28.988  0.00  0.00    +0.219 N 
ATOM     69  HZ1 LYS A   6       2.805   1.354  29.160  0.00  0.00    +0.199 HD
ATOM     70  HZ2 LYS A   6       4.373   0.915  29.475  0.00  0.00    +0.199 HD
ATOM     71  HZ3 LYS A   6       3.962   1.499  27.979  0.00  0.00    +0.199 HD
ENDBRANCH  67  68
ENDBRANCH  66  67
ENDBRANCH  65  66
ENDBRANCH  64  65
ENDBRANCH  44  64
ENDBRANCH  41  44
ENDBRANCH  39  40
BRANCH  39  72
ATOM     72  CB  SER A   5       7.780   1.387  26.064  0.00  0.00    +0.187 C 
BRANCH  72  73
ATOM     73  OG  SER A   5       7.868   1.466  24.641  0.00  0.00    -0.393 OA
ATOM     74  H   SER A   5       8.109   0.576  24.326  0.00  0.00    +0.209 HD
ENDBRANCH  72  73
ENDBRANCH  39  72
ENDBRANCH   3  39
TORSDOF 34
ENDMDL
MODEL 20
REMARK VINA RESULT:      -5.5      2.467      8.432
REMARK  Name = ATVQSKMS-mmff94.pdb
REMARK  39 active torsions:
REMARK  status: ('A' for Active; 'I' for Inactive)
REMARK    1  A    between atoms: _1  and  _2
REMARK    2  A    between atoms: _2  and  _3
REMARK    3  A    between atoms: _2  and  _5
REMARK    4  A    between atoms: _11  and  _12
REMARK    5  A    between atoms: _12  and  _13
REMARK    6  A    between atoms: _12  and  _15
REMARK    7  A    between atoms: _15  and  _16
REMARK    8  A    between atoms: _15  and  _17
REMARK    9  A    between atoms: _25  and  _26
REMARK   10  A    between atoms: _26  and  _27
REMARK   11  A    between atoms: _26  and  _29
REMARK   12  A    between atoms: _29  and  _30
REMARK   13  A    between atoms: _29  and  _31
REMARK   14  A    between atoms: _41  and  _42
REMARK   15  A    between atoms: _42  and  _43
REMARK   16  A    between atoms: _42  and  _45
REMARK   17  A    between atoms: _45  and  _46
REMARK   18  A    between atoms: _46  and  _47
REMARK   19  A    between atoms: _58  and  _59
REMARK   20  A    between atoms: _59  and  _60
REMARK   21  A    between atoms: _59  and  _62
REMARK   22  A    between atoms: _62  and  _63
REMARK   23  A    between atoms: _69  and  _70
REMARK   24  A    between atoms: _70  and  _71
REMARK   25  A    between atoms: _70  and  _73
REMARK   26  A    between atoms: _73  and  _74
REMARK   27  A    between atoms: _74  and  _75
REMARK   28  A    between atoms: _75  and  _76
REMARK   29  A    between atoms: _76  and  _77
REMARK   30  A    between atoms: _91  and  _92
REMARK   31  A    between atoms: _92  and  _93
REMARK   32  A    between atoms: _92  and  _95
REMARK   33  A    between atoms: _95  and  _96
REMARK   34  A    between atoms: _96  and  _97
REMARK   35  A    between atoms: _97  and  _98
REMARK   36  A    between atoms: _108  and  _109
REMARK   37  A    between atoms: _109  and  _110
REMARK   38  A    between atoms: _109  and  _112
REMARK   39  A    between atoms: _112  and  _113
REMARK                            x       y       z     vdW  Elec       q    Type
REMARK                         _______ _______ _______ _____ _____    ______ ____
ROOT
ATOM      1  C   GLN A   4       8.774   2.794  22.959  0.00  0.00    +0.234 C 
ATOM      2  O   GLN A   4       8.574   2.358  21.826  0.00  0.00    -0.274 OA
ATOM      3  N   SER A   5       9.280   2.012  23.961  0.00  0.00    -0.301 N 
ATOM      4  H   SER A   5       9.449   2.379  24.894  0.00  0.00    +0.150 HD
ENDROOT
BRANCH   1   5
ATOM      5  CA  GLN A   4       8.417   4.239  23.353  0.00  0.00    +0.159 C 
BRANCH   5   7
ATOM      6  C   VAL A   3       5.984   4.702  23.602  0.00  0.00    +0.234 C 
ATOM      7  N   GLN A   4       7.149   4.149  24.072  0.00  0.00    -0.302 N 
ATOM      8  H   GLN A   4       7.155   3.629  24.948  0.00  0.00    +0.150 HD
ATOM      9  O   VAL A   3       5.945   5.359  22.561  0.00  0.00    -0.274 OA
BRANCH   6  10
ATOM     10  CA  VAL A   3       4.727   4.415  24.455  0.00  0.00    +0.161 C 
BRANCH  10  13
ATOM     11  C   THR A   2       4.524   2.466  25.997  0.00  0.00    +0.236 C 
ATOM     12  O   THR A   2       3.470   2.084  25.490  0.00  0.00    -0.274 OA
ATOM     13  N   VAL A   3       5.195   3.585  25.565  0.00  0.00    -0.302 N 
ATOM     14  H   VAL A   3       6.088   3.838  25.977  0.00  0.00    +0.150 HD
BRANCH  11  15
ATOM     15  CA  THR A   2       5.203   1.703  27.143  0.00  0.00    +0.187 C 
BRANCH  15  17
ATOM     16  C   ALA A   1       4.736  -0.735  27.128  0.00  0.00    +0.230 C 
ATOM     17  N   THR A   2       5.441   0.344  26.650  0.00  0.00    -0.301 N 
ATOM     18  H   THR A   2       6.237   0.206  26.038  0.00  0.00    +0.150 HD
ATOM     19  O   ALA A   1       3.769  -0.633  27.879  0.00  0.00    -0.274 OA
BRANCH  16  20
ATOM     20  CA  ALA A   1       5.242  -2.099  26.615  0.00  0.00    +0.135 C 
ATOM     21  CB  ALA A   1       4.960  -3.175  27.655  0.00  0.00    +0.033 C 
BRANCH  20  22
ATOM     22  N   ALA A   1       6.689  -2.021  26.340  0.00  0.00    -0.320 NA
ATOM     23  H1  ALA A   1       7.184  -2.147  27.225  0.00  0.00    +0.119 HD
ATOM     24  H2  ALA A   1       6.938  -2.860  25.807  0.00  0.00    +0.119 HD
ENDBRANCH  20  22
ENDBRANCH  16  20
ENDBRANCH  15  17
BRANCH  15  25
ATOM     25  CB  THR A   2       6.529   2.410  27.514  0.00  0.00    +0.141 C 
ATOM     26  CG2 THR A   2       7.062   1.976  28.877  0.00  0.00    +0.040 C 
BRANCH  25  27
ATOM     27  OG1 THR A   2       7.536   2.119  26.539  0.00  0.00    -0.390 OA
ATOM     28  HG1 THR A   2       7.269   1.319  26.053  0.00  0.00    +0.210 HD
ENDBRANCH  25  27
ENDBRANCH  15  25
ENDBRANCH  11  15
ENDBRANCH  10  13
BRANCH  10  29
ATOM     29  CB  VAL A   3       4.055   5.712  24.968  0.00  0.00    +0.012 C 
ATOM     30  CG2 VAL A   3       2.566   5.789  24.610  0.00  0.00    +0.009 C 
ATOM     31  CG1 VAL A   3       4.195   5.852  26.491  0.00  0.00    +0.009 C 
ENDBRANCH  10  29
ENDBRANCH   6  10
ENDBRANCH   5   7
BRANCH   5  32
ATOM     32  CB  GLN A   4       9.502   4.850  24.251  0.00  0.00    +0.041 C 
BRANCH  32  33
ATOM     33  CG  GLN A   4      10.532   5.677  23.480  0.00  0.00    +0.098 C 
BRANCH  33  34
ATOM     34  CD  GLN A   4      11.766   4.882  23.108  0.00  0.00    +0.211 C 
ATOM     35  OE1 GLN A   4      11.965   3.739  23.510  0.00  0.00    -0.276 OA
ATOM     36  NE2 GLN A   4      12.635   5.489  22.257  0.00  0.00    -0.329 N 
ATOM     37 HE21 GLN A   4      12.459   6.384  21.821  0.00  0.00    +0.145 HD
ATOM     38 HE22 GLN A   4      13.452   4.968  21.962  0.00  0.00    +0.145 HD
ENDBRANCH  33  34
ENDBRANCH  32  33
ENDBRANCH   5  32
ENDBRANCH   1   5
BRANCH   3  39
ATOM     39  CA  SER A   5       9.456   0.569  23.795  0.00  0.00    +0.184 C 
BRANCH  39  40
ATOM     40  C   SER A   5       8.066  -0.050  23.574  0.00  0.00    +0.236 C 
ATOM     41  N   LYS A   6       7.950  -0.842  22.458  0.00  0.00    -0.302 N 
ATOM     42  H   LYS A   6       8.729  -0.950  21.813  0.00  0.00    +0.150 HD
ATOM     43  O   SER A   5       7.119   0.170  24.331  0.00  0.00    -0.274 OA
BRANCH  41  44
ATOM     44  CA  LYS A   6       6.717  -1.544  22.124  0.00  0.00    +0.159 C 
BRANCH  44  45
ATOM     45  C   LYS A   6       6.966  -3.025  22.456  0.00  0.00    +0.234 C 
ATOM     46  O   LYS A   6       7.818  -3.691  21.870  0.00  0.00    -0.274 OA
ATOM     47  N   MET A   7       6.144  -3.549  23.419  0.00  0.00    -0.302 N 
ATOM     48  H   MET A   7       5.445  -2.967  23.873  0.00  0.00    +0.150 HD
BRANCH  47  49
ATOM     49  CA  MET A   7       6.146  -4.963  23.782  0.00  0.00    +0.160 C 
BRANCH  49  50
ATOM     50  C   MET A   7       4.681  -5.440  23.660  0.00  0.00    +0.234 C 
ATOM     51  N   SER A   8       4.238  -6.255  24.672  0.00  0.00    -0.302 N 
ATOM     52  H   SER A   8       4.801  -6.358  25.519  0.00  0.00    +0.150 HD
ATOM     53  O   MET A   7       3.969  -5.136  22.701  0.00  0.00    -0.274 OA
BRANCH  51  54
ATOM     54  CA  SER A   8       2.828  -6.624  24.824  0.00  0.00    +0.161 C 
BRANCH  54  55
ATOM     55  C   SER A   8       2.498  -6.574  26.308  0.00  0.00    +0.247 C 
ATOM     56  O   SER A   8       3.325  -6.842  27.179  0.00  0.00    -0.299 OA
ENDBRANCH  54  55
BRANCH  54  57
ATOM     57  CB  SER A   8       2.506  -8.013  24.265  0.00  0.00    +0.185 C 
BRANCH  57  58
ATOM     58  OG  SER A   8       2.575  -9.018  25.277  0.00  0.00    -0.393 OA
ATOM     59  H   SER A   8       3.444  -9.450  25.190  0.00  0.00    +0.209 HD
ENDBRANCH  57  58
ENDBRANCH  54  57
ENDBRANCH  51  54
ENDBRANCH  49  50
BRANCH  49  60
ATOM     60  CB  MET A   7       6.688  -5.186  25.199  0.00  0.00    +0.042 C 
BRANCH  60  61
ATOM     61  CG  MET A   7       8.112  -5.743  25.193  0.00  0.00    +0.071 C 
BRANCH  61  62
ATOM     62  SD  MET A   7       9.224  -4.596  26.061  0.00  0.00    -0.164 S 
ATOM     63  CE  MET A   7       9.694  -3.560  24.651  0.00  0.00    +0.084 C 
ENDBRANCH  61  62
ENDBRANCH  60  61
ENDBRANCH  49  60
ENDBRANCH  47  49
ENDBRANCH  44  45
BRANCH  44  64
ATOM     64  CB  LYS A   6       6.364  -1.362  20.639  0.00  0.00    +0.032 C 
BRANCH  64  65
ATOM     65  CG  LYS A   6       7.006  -0.126  20.001  0.00  0.00    +0.007 C 
BRANCH  65  66
ATOM     66  CD  LYS A   6       6.047   0.563  19.029  0.00  0.00    +0.051 C 
BRANCH  66  67
ATOM     67  CE  LYS A   6       5.314   1.711  19.708  0.00  0.00    +0.127 C 
BRANCH  67  68
ATOM     68  NZ  LYS A   6       4.119   2.065  18.904  0.00  0.00    +0.219 N 
ATOM     69  HZ1 LYS A   6       3.269   2.099  19.482  0.00  0.00    +0.199 HD
ATOM     70  HZ2 LYS A   6       3.957   1.376  18.158  0.00  0.00    +0.199 HD
ATOM     71  HZ3 LYS A   6       4.224   2.985  18.454  0.00  0.00    +0.199 HD
ENDBRANCH  67  68
ENDBRANCH  66  67
ENDBRANCH  65  66
ENDBRANCH  64  65
ENDBRANCH  44  64
ENDBRANCH  41  44
ENDBRANCH  39  40
BRANCH  39  72
ATOM     72  CB  SER A   5      10.172  -0.074  24.986  0.00  0.00    +0.187 C 
BRANCH  72  73
ATOM     73  OG  SER A   5       9.324  -0.144  26.132  0.00  0.00    -0.393 OA
ATOM     74  H   SER A   5       8.459  -0.467  25.821  0.00  0.00    +0.209 HD
ENDBRANCH  72  73
ENDBRANCH  39  72
ENDBRANCH   3  39
TORSDOF 34
ENDMDL
