REMARK  Name = ATVQSKMS-mmff94.pdb
REMARK  39 active torsions:
REMARK  status: ('A' for Active; 'I' for Inactive)
REMARK    1  A    between atoms: _1  and  _2
REMARK    2  A    between atoms: _2  and  _3
REMARK    3  A    between atoms: _2  and  _5
REMARK    4  A    between atoms: _11  and  _12
REMARK    5  A    between atoms: _12  and  _13
REMARK    6  A    between atoms: _12  and  _15
REMARK    7  A    between atoms: _15  and  _16
REMARK    8  A    between atoms: _15  and  _17
REMARK    9  A    between atoms: _25  and  _26
REMARK   10  A    between atoms: _26  and  _27
REMARK   11  A    between atoms: _26  and  _29
REMARK   12  A    between atoms: _29  and  _30
REMARK   13  A    between atoms: _29  and  _31
REMARK   14  A    between atoms: _41  and  _42
REMARK   15  A    between atoms: _42  and  _43
REMARK   16  A    between atoms: _42  and  _45
REMARK   17  A    between atoms: _45  and  _46
REMARK   18  A    between atoms: _46  and  _47
REMARK   19  A    between atoms: _58  and  _59
REMARK   20  A    between atoms: _59  and  _60
REMARK   21  A    between atoms: _59  and  _62
REMARK   22  A    between atoms: _62  and  _63
REMARK   23  A    between atoms: _69  and  _70
REMARK   24  A    between atoms: _70  and  _71
REMARK   25  A    between atoms: _70  and  _73
REMARK   26  A    between atoms: _73  and  _74
REMARK   27  A    between atoms: _74  and  _75
REMARK   28  A    between atoms: _75  and  _76
REMARK   29  A    between atoms: _76  and  _77
REMARK   30  A    between atoms: _91  and  _92
REMARK   31  A    between atoms: _92  and  _93
REMARK   32  A    between atoms: _92  and  _95
REMARK   33  A    between atoms: _95  and  _96
REMARK   34  A    between atoms: _96  and  _97
REMARK   35  A    between atoms: _97  and  _98
REMARK   36  A    between atoms: _108  and  _109
REMARK   37  A    between atoms: _109  and  _110
REMARK   38  A    between atoms: _109  and  _112
REMARK   39  A    between atoms: _112  and  _113
REMARK                            x       y       z     vdW  Elec       q    Type
REMARK                         _______ _______ _______ _____ _____    ______ ____
ROOT
ATOM      1  C   GLN A   4      10.621   5.457  -0.701  0.00  0.00    +0.234 C 
ATOM      2  O   GLN A   4       9.977   6.416  -1.126  0.00  0.00    -0.274 OA
ATOM      3  N   SER A   5      11.893   5.592  -0.216  0.00  0.00    -0.301 N 
ATOM      4  H   SER A   5      12.418   4.797   0.140  0.00  0.00    +0.150 HD
ENDROOT
BRANCH   1   5
ATOM      5  CA  GLN A   4      10.066   4.021  -0.735  0.00  0.00    +0.159 C 
BRANCH   5   7
ATOM      6  C   VAL A   3       7.792   3.191  -0.156  0.00  0.00    +0.234 C 
ATOM      7  N   GLN A   4       8.613   4.159  -0.679  0.00  0.00    -0.302 N 
ATOM      8  H   GLN A   4       8.222   5.031  -1.031  0.00  0.00    +0.150 HD
ATOM      9  O   VAL A   3       8.227   2.115   0.255  0.00  0.00    -0.274 OA
BRANCH   6  10
ATOM     10  CA  VAL A   3       6.292   3.563  -0.093  0.00  0.00    +0.161 C 
BRANCH  10  13
ATOM     11  C   THR A   2       4.480   2.076  -0.944  0.00  0.00    +0.236 C 
ATOM     12  O   THR A   2       4.009   2.948  -1.673  0.00  0.00    -0.274 OA
ATOM     13  N   VAL A   3       5.576   2.288  -0.142  0.00  0.00    -0.302 N 
ATOM     14  H   VAL A   3       5.964   1.527   0.408  0.00  0.00    +0.150 HD
BRANCH  11  15
ATOM     15  CA  THR A   2       3.900   0.656  -0.889  0.00  0.00    +0.187 C 
BRANCH  15  17
ATOM     16  C   ALA A   1       1.632  -0.046  -0.164  0.00  0.00    +0.230 C 
ATOM     17  N   THR A   2       2.443   0.806  -0.875  0.00  0.00    -0.301 N 
ATOM     18  H   THR A   2       2.041   1.480  -1.516  0.00  0.00    +0.150 HD
ATOM     19  O   ALA A   1       2.059  -0.890   0.621  0.00  0.00    -0.274 OA
BRANCH  16  20
ATOM     20  CA  ALA A   1       0.124   0.165  -0.407  0.00  0.00    +0.135 C 
ATOM     21  CB  ALA A   1      -0.431   1.140   0.622  0.00  0.00    +0.033 C 
BRANCH  20  22
ATOM     22  N   ALA A   1      -0.580  -1.128  -0.317  0.00  0.00    -0.320 NA
ATOM     23  H1  ALA A   1      -0.147  -1.768  -0.986  0.00  0.00    +0.119 HD
ATOM     24  H2  ALA A   1      -0.341  -1.537   0.592  0.00  0.00    +0.119 HD
ENDBRANCH  20  22
ENDBRANCH  16  20
ENDBRANCH  15  17
BRANCH  15  25
ATOM     25  CB  THR A   2       4.375  -0.140  -2.128  0.00  0.00    +0.141 C 
ATOM     26  CG2 THR A   2       5.878  -0.407  -2.112  0.00  0.00    +0.040 C 
BRANCH  25  27
ATOM     27  OG1 THR A   2       3.708  -1.406  -2.190  0.00  0.00    -0.390 OA
ATOM     28  HG1 THR A   2       3.982  -1.855  -3.008  0.00  0.00    +0.210 HD
ENDBRANCH  25  27
ENDBRANCH  15  25
ENDBRANCH  11  15
ENDBRANCH  10  13
BRANCH  10  29
ATOM     29  CB  VAL A   3       5.936   4.358   1.187  0.00  0.00    +0.012 C 
ATOM     30  CG2 VAL A   3       6.692   5.688   1.287  0.00  0.00    +0.009 C 
ATOM     31  CG1 VAL A   3       4.430   4.649   1.266  0.00  0.00    +0.009 C 
ENDBRANCH  10  29
ENDBRANCH   6  10
ENDBRANCH   5   7
BRANCH   5  32
ATOM     32  CB  GLN A   4      10.488   3.297  -2.021  0.00  0.00    +0.041 C 
BRANCH  32  33
ATOM     33  CG  GLN A   4      11.911   2.740  -1.964  0.00  0.00    +0.098 C 
BRANCH  33  34
ATOM     34  CD  GLN A   4      12.413   2.269  -3.313  0.00  0.00    +0.211 C 
ATOM     35  OE1 GLN A   4      13.481   2.641  -3.790  0.00  0.00    -0.276 OA
ATOM     36  NE2 GLN A   4      11.630   1.366  -3.961  0.00  0.00    -0.329 N 
ATOM     37 HE21 GLN A   4      10.798   0.956  -3.559  0.00  0.00    +0.145 HD
ATOM     38 HE22 GLN A   4      11.957   1.006  -4.849  0.00  0.00    +0.145 HD
ENDBRANCH  33  34
ENDBRANCH  32  33
ENDBRANCH   5  32
ENDBRANCH   1   5
BRANCH   3  39
ATOM     39  CA  SER A   5      12.628   6.852  -0.328  0.00  0.00    +0.184 C 
BRANCH  39  40
ATOM     40  C   SER A   5      14.129   6.524  -0.288  0.00  0.00    +0.236 C 
ATOM     41  N   LYS A   6      14.960   7.544  -0.682  0.00  0.00    -0.302 N 
ATOM     42  H   LYS A   6      14.580   8.424  -1.022  0.00  0.00    +0.150 HD
ATOM     43  O   SER A   5      14.553   5.417   0.049  0.00  0.00    -0.274 OA
BRANCH  41  44
ATOM     44  CA  LYS A   6      16.412   7.420  -0.660  0.00  0.00    +0.159 C 
BRANCH  44  45
ATOM     45  C   LYS A   6      16.963   8.855  -0.695  0.00  0.00    +0.234 C 
ATOM     46  O   LYS A   6      16.383   9.763  -1.288  0.00  0.00    -0.274 OA
ATOM     47  N   MET A   7      18.161   9.032  -0.054  0.00  0.00    -0.302 N 
ATOM     48  H   MET A   7      18.614   8.253   0.417  0.00  0.00    +0.150 HD
BRANCH  47  49
ATOM     49  CA  MET A   7      18.900  10.291  -0.082  0.00  0.00    +0.160 C 
BRANCH  49  50
ATOM     50  C   MET A   7      20.392   9.910  -0.214  0.00  0.00    +0.234 C 
ATOM     51  N   SER A   8      21.249  10.954  -0.460  0.00  0.00    -0.302 N 
ATOM     52  H   SER A   8      20.914  11.914  -0.365  0.00  0.00    +0.150 HD
ATOM     53  O   MET A   7      20.782   8.743  -0.137  0.00  0.00    -0.274 OA
BRANCH  51  54
ATOM     54  CA  SER A   8      22.706  10.804  -0.405  0.00  0.00    +0.161 C 
BRANCH  54  55
ATOM     55  C   SER A   8      23.313  12.197  -0.468  0.00  0.00    +0.247 C 
ATOM     56  O   SER A   8      22.638  13.219  -0.347  0.00  0.00    -0.299 OA
ENDBRANCH  54  55
BRANCH  54  57
ATOM     57  CB  SER A   8      23.265   9.940  -1.540  0.00  0.00    +0.185 C 
BRANCH  57  58
ATOM     58  OG  SER A   8      22.781  10.366  -2.814  0.00  0.00    -0.393 OA
ATOM     59  H   SER A   8      21.845  10.611  -2.695  0.00  0.00    +0.209 HD
ENDBRANCH  57  58
ENDBRANCH  54  57
ENDBRANCH  51  54
ENDBRANCH  49  50
BRANCH  49  60
ATOM     60  CB  MET A   7      18.648  11.127   1.178  0.00  0.00    +0.042 C 
BRANCH  60  61
ATOM     61  CG  MET A   7      17.196  11.593   1.283  0.00  0.00    +0.071 C 
BRANCH  61  62
ATOM     62  SD  MET A   7      16.998  12.666   2.738  0.00  0.00    -0.164 S 
ATOM     63  CE  MET A   7      15.209  12.928   2.636  0.00  0.00    +0.084 C 
ENDBRANCH  61  62
ENDBRANCH  60  61
ENDBRANCH  49  60
ENDBRANCH  47  49
ENDBRANCH  44  45
BRANCH  44  64
ATOM     64  CB  LYS A   6      16.915   6.605  -1.863  0.00  0.00    +0.032 C 
BRANCH  64  65
ATOM     65  CG  LYS A   6      18.424   6.340  -1.838  0.00  0.00    +0.007 C 
BRANCH  65  66
ATOM     66  CD  LYS A   6      18.847   5.409  -2.976  0.00  0.00    +0.051 C 
BRANCH  66  67
ATOM     67  CE  LYS A   6      20.355   5.202  -2.979  0.00  0.00    +0.127 C 
BRANCH  67  68
ATOM     68  NZ  LYS A   6      20.716   4.295  -4.096  0.00  0.00    +0.219 N 
ATOM     69  HZ1 LYS A   6      20.261   3.377  -4.001  0.00  0.00    +0.199 HD
ATOM     70  HZ2 LYS A   6      21.731   4.134  -4.129  0.00  0.00    +0.199 HD
ATOM     71  HZ3 LYS A   6      20.438   4.686  -5.006  0.00  0.00    +0.199 HD
ENDBRANCH  67  68
ENDBRANCH  66  67
ENDBRANCH  65  66
ENDBRANCH  64  65
ENDBRANCH  44  64
ENDBRANCH  41  44
ENDBRANCH  39  40
BRANCH  39  72
ATOM     72  CB  SER A   5      12.244   7.852   0.767  0.00  0.00    +0.187 C 
BRANCH  72  73
ATOM     73  OG  SER A   5      12.413   7.293   2.070  0.00  0.00    -0.393 OA
ATOM     74  H   SER A   5      11.783   6.553   2.141  0.00  0.00    +0.209 HD
ENDBRANCH  72  73
ENDBRANCH  39  72
ENDBRANCH   3  39
TORSDOF 34
