MODEL 1
REMARK VINA RESULT:      -5.6      0.000      0.000
REMARK  Name = AVLQSGFR-mmff94.pdb
REMARK  35 active torsions:
REMARK  status: ('A' for Active; 'I' for Inactive)
REMARK    1  A    between atoms: _1  and  _2
REMARK    2  A    between atoms: _2  and  _3
REMARK    3  A    between atoms: _2  and  _5
REMARK    4  A    between atoms: _11  and  _12
REMARK    5  A    between atoms: _12  and  _13
REMARK    6  A    between atoms: _12  and  _15
REMARK    7  A    between atoms: _15  and  _16
REMARK    8  A    between atoms: _15  and  _17
REMARK    9  A    between atoms: _27  and  _28
REMARK   10  A    between atoms: _28  and  _29
REMARK   11  A    between atoms: _28  and  _31
REMARK   12  A    between atoms: _31  and  _32
REMARK   13  A    between atoms: _32  and  _33
REMARK   14  A    between atoms: _32  and  _34
REMARK   15  A    between atoms: _46  and  _47
REMARK   16  A    between atoms: _47  and  _48
REMARK   17  A    between atoms: _47  and  _50
REMARK   18  A    between atoms: _50  and  _51
REMARK   19  A    between atoms: _51  and  _52
REMARK   20  A    between atoms: _63  and  _64
REMARK   21  A    between atoms: _64  and  _65
REMARK   22  A    between atoms: _64  and  _67
REMARK   23  A    between atoms: _67  and  _68
REMARK   24  A    between atoms: _74  and  _75
REMARK   25  A    between atoms: _75  and  _76
REMARK   26  A    between atoms: _81  and  _82
REMARK   27  A    between atoms: _82  and  _83
REMARK   28  A    between atoms: _82  and  _85
REMARK   29  A    between atoms: _85  and  _86
REMARK   30  A    between atoms: _101  and  _102
REMARK   31  A    between atoms: _102  and  _103
REMARK   32  A    between atoms: _102  and  _105
REMARK   33  A    between atoms: _105  and  _106
REMARK   34  A    between atoms: _106  and  _107
REMARK   35  A    between atoms: _107  and  _108
REMARK                            x       y       z     vdW  Elec       q    Type
REMARK                         _______ _______ _______ _____ _____    ______ ____
ROOT
ATOM      1  CA  SER A   5       6.729  -4.565  22.121  0.00  0.00    +0.184 C 
ENDROOT
BRANCH   1   4
ATOM      2  C   GLN A   4       8.497  -3.054  22.995  0.00  0.00    +0.234 C 
ATOM      3  O   GLN A   4       8.526  -2.398  21.954  0.00  0.00    -0.274 OA
ATOM      4  N   SER A   5       7.711  -4.168  23.136  0.00  0.00    -0.301 N 
ATOM      5  H   SER A   5       7.648  -4.662  24.025  0.00  0.00    +0.150 HD
BRANCH   2   6
ATOM      6  CA  GLN A   4       9.307  -2.648  24.242  0.00  0.00    +0.159 C 
BRANCH   6   8
ATOM      7  C   LEU A   3       9.298  -0.272  24.988  0.00  0.00    +0.234 C 
ATOM      8  N   GLN A   4       8.645  -1.465  24.790  0.00  0.00    -0.302 N 
ATOM      9  H   GLN A   4       7.680  -1.579  25.089  0.00  0.00    +0.150 HD
ATOM     10  O   LEU A   3      10.479  -0.106  24.687  0.00  0.00    -0.274 OA
BRANCH   7  11
ATOM     11  CA  LEU A   3       8.429   0.856  25.585  0.00  0.00    +0.159 C 
BRANCH  11  14
ATOM     12  C   VAL A   2       7.481   2.312  23.803  0.00  0.00    +0.234 C 
ATOM     13  O   VAL A   2       8.338   3.183  23.949  0.00  0.00    -0.274 OA
ATOM     14  N   LEU A   3       7.419   1.185  24.585  0.00  0.00    -0.302 N 
ATOM     15  H   LEU A   3       6.764   0.444  24.349  0.00  0.00    +0.150 HD
BRANCH  12  16
ATOM     16  CA  VAL A   2       6.408   2.404  22.698  0.00  0.00    +0.161 C 
BRANCH  16  18
ATOM     17  C   ALA A   1       6.371   1.067  20.595  0.00  0.00    +0.230 C 
ATOM     18  N   VAL A   2       6.521   1.148  21.958  0.00  0.00    -0.302 N 
ATOM     19  H   VAL A   2       6.803   0.330  22.492  0.00  0.00    +0.150 HD
ATOM     20  O   ALA A   1       6.098   2.038  19.893  0.00  0.00    -0.274 OA
BRANCH  17  21
ATOM     21  CA  ALA A   1       6.564  -0.348  20.013  0.00  0.00    +0.135 C 
ATOM     22  CB  ALA A   1       5.939  -0.420  18.627  0.00  0.00    +0.033 C 
BRANCH  21  23
ATOM     23  N   ALA A   1       5.940  -1.342  20.905  0.00  0.00    -0.320 NA
ATOM     24  H1  ALA A   1       5.199  -1.817  20.387  0.00  0.00    +0.119 HD
ATOM     25  H2  ALA A   1       6.632  -2.079  21.070  0.00  0.00    +0.119 HD
ENDBRANCH  21  23
ENDBRANCH  17  21
ENDBRANCH  16  18
BRANCH  16  26
ATOM     26  CB  VAL A   2       4.998   2.587  23.310  0.00  0.00    +0.012 C 
ATOM     27  CG2 VAL A   2       4.031   3.268  22.335  0.00  0.00    +0.009 C 
ATOM     28  CG1 VAL A   2       5.035   3.400  24.610  0.00  0.00    +0.009 C 
ENDBRANCH  16  26
ENDBRANCH  12  16
ENDBRANCH  11  14
BRANCH  11  29
ATOM     29  CB  LEU A   3       7.798   0.378  26.903  0.00  0.00    +0.034 C 
BRANCH  29  30
ATOM     30  CG  LEU A   3       6.650   1.260  27.435  0.00  0.00    -0.015 C 
ATOM     31  CD2 LEU A   3       6.185   0.733  28.796  0.00  0.00    +0.007 C 
ATOM     32  CD1 LEU A   3       7.062   2.726  27.571  0.00  0.00    +0.007 C 
ENDBRANCH  29  30
ENDBRANCH  11  29
ENDBRANCH   7  11
ENDBRANCH   6   8
BRANCH   6  33
ATOM     33  CB  GLN A   4       9.339  -3.776  25.286  0.00  0.00    +0.041 C 
BRANCH  33  34
ATOM     34  CG  GLN A   4       8.310  -3.613  26.403  0.00  0.00    +0.098 C 
BRANCH  34  35
ATOM     35  CD  GLN A   4       7.458  -4.841  26.649  0.00  0.00    +0.211 C 
ATOM     36  OE1 GLN A   4       6.232  -4.811  26.604  0.00  0.00    -0.276 OA
ATOM     37  NE2 GLN A   4       8.104  -5.978  27.027  0.00  0.00    -0.329 N 
ATOM     38 HE21 GLN A   4       9.100  -6.113  26.940  0.00  0.00    +0.145 HD
ATOM     39 HE22 GLN A   4       7.529  -6.802  27.153  0.00  0.00    +0.145 HD
ENDBRANCH  34  35
ENDBRANCH  33  34
ENDBRANCH   6  33
ENDBRANCH   2   6
ENDBRANCH   1   4
BRANCH   1  40
ATOM     40  C   SER A   5       5.336  -4.429  22.758  0.00  0.00    +0.236 C 
ATOM     41  N   GLY A   6       5.245  -3.563  23.817  0.00  0.00    -0.305 N 
ATOM     42  H   GLY A   6       6.065  -3.104  24.204  0.00  0.00    +0.149 HD
ATOM     43  O   SER A   5       4.372  -5.084  22.355  0.00  0.00    -0.274 OA
BRANCH  41  44
ATOM     44  CA  GLY A   6       3.985  -3.338  24.497  0.00  0.00    +0.200 C 
BRANCH  44  45
ATOM     45  C   GLY A   6       4.239  -2.494  25.741  0.00  0.00    +0.231 C 
ATOM     46  O   GLY A   6       4.735  -1.371  25.678  0.00  0.00    -0.274 OA
ATOM     47  N   PHE A   7       3.872  -3.093  26.922  0.00  0.00    -0.302 N 
ATOM     48  H   PHE A   7       3.517  -4.043  26.930  0.00  0.00    +0.150 HD
BRANCH  47  49
ATOM     49  CA  PHE A   7       3.849  -2.361  28.187  0.00  0.00    +0.163 C 
BRANCH  49  50
ATOM     50  C   PHE A   7       4.019  -3.390  29.318  0.00  0.00    +0.234 C 
ATOM     51  N   ARG A   8       4.105  -4.701  28.912  0.00  0.00    -0.304 N 
ATOM     52  H   ARG A   8       3.984  -4.951  27.931  0.00  0.00    +0.149 HD
ATOM     53  O   PHE A   7       4.114  -3.069  30.504  0.00  0.00    -0.274 OA
BRANCH  51  54
ATOM     54  CA  ARG A   8       4.307  -5.788  29.861  0.00  0.00    +0.136 C 
BRANCH  54  55
ATOM     55  C   ARG A   8       5.670  -6.397  29.564  0.00  0.00    +0.245 C 
ATOM     56  O   ARG A   8       5.838  -7.322  28.772  0.00  0.00    -0.299 OA
ENDBRANCH  54  55
BRANCH  54  57
ATOM     57  CB  ARG A   8       3.203  -6.846  29.739  0.00  0.00    +0.033 C 
BRANCH  57  58
ATOM     58  CG  ARG A   8       2.083  -6.430  28.780  0.00  0.00    +0.039 C 
BRANCH  58  59
ATOM     59  CD  ARG A   8       2.069  -7.318  27.535  0.00  0.00    +0.196 C 
BRANCH  59  60
ATOM     60  NE  ARG A   8       3.371  -7.289  26.850  0.00  0.00    -0.279 N 
ATOM     61  HE  ARG A   8       4.193  -7.604  27.352  0.00  0.00    +0.258 HD
ATOM     62  CZ  ARG A   8       3.546  -6.895  25.577  0.00  0.00    +0.341 C 
ATOM     63  NH2 ARG A   8       4.771  -6.920  25.044  0.00  0.00    -0.292 N 
ATOM     64 HH21 ARG A   8       5.579  -7.231  25.569  0.00  0.00    +0.255 HD
ATOM     65 HH22 ARG A   8       4.935  -6.630  24.088  0.00  0.00    +0.255 HD
ATOM     66  NH1 ARG A   8       2.529  -6.473  24.822  0.00  0.00    -0.292 N 
ATOM     67 HH11 ARG A   8       1.584  -6.438  25.179  0.00  0.00    +0.255 HD
ATOM     68 HH12 ARG A   8       2.665  -6.180  23.863  0.00  0.00    +0.255 HD
ENDBRANCH  59  60
ENDBRANCH  58  59
ENDBRANCH  57  58
ENDBRANCH  54  57
ENDBRANCH  51  54
ENDBRANCH  49  50
BRANCH  49  69
ATOM     69  CB  PHE A   7       2.525  -1.604  28.397  0.00  0.00    +0.067 C 
BRANCH  69  70
ATOM     70  CG  PHE A   7       2.685  -0.108  28.531  0.00  0.00    -0.045 A 
ATOM     71  CD2 PHE A   7       2.707   0.493  29.798  0.00  0.00    +0.004 A 
ATOM     72  CE2 PHE A   7       2.816   1.879  29.924  0.00  0.00    +0.000 A 
ATOM     73  CZ  PHE A   7       2.912   2.677  28.785  0.00  0.00    +0.000 A 
ATOM     74  CE1 PHE A   7       2.894   2.090  27.521  0.00  0.00    +0.000 A 
ATOM     75  CD1 PHE A   7       2.779   0.704  27.393  0.00  0.00    +0.004 A 
ENDBRANCH  69  70
ENDBRANCH  49  69
ENDBRANCH  47  49
ENDBRANCH  44  45
ENDBRANCH  41  44
ENDBRANCH   1  40
BRANCH   1  76
ATOM     76  CB  SER A   5       6.977  -5.984  21.598  0.00  0.00    +0.187 C 
BRANCH  76  77
ATOM     77  OG  SER A   5       6.272  -6.962  22.365  0.00  0.00    -0.393 OA
ATOM     78  H   SER A   5       6.914  -7.336  22.996  0.00  0.00    +0.209 HD
ENDBRANCH  76  77
ENDBRANCH   1  76
TORSDOF 30
ENDMDL
MODEL 2
REMARK VINA RESULT:      -5.5      2.238      6.931
REMARK  Name = AVLQSGFR-mmff94.pdb
REMARK  35 active torsions:
REMARK  status: ('A' for Active; 'I' for Inactive)
REMARK    1  A    between atoms: _1  and  _2
REMARK    2  A    between atoms: _2  and  _3
REMARK    3  A    between atoms: _2  and  _5
REMARK    4  A    between atoms: _11  and  _12
REMARK    5  A    between atoms: _12  and  _13
REMARK    6  A    between atoms: _12  and  _15
REMARK    7  A    between atoms: _15  and  _16
REMARK    8  A    between atoms: _15  and  _17
REMARK    9  A    between atoms: _27  and  _28
REMARK   10  A    between atoms: _28  and  _29
REMARK   11  A    between atoms: _28  and  _31
REMARK   12  A    between atoms: _31  and  _32
REMARK   13  A    between atoms: _32  and  _33
REMARK   14  A    between atoms: _32  and  _34
REMARK   15  A    between atoms: _46  and  _47
REMARK   16  A    between atoms: _47  and  _48
REMARK   17  A    between atoms: _47  and  _50
REMARK   18  A    between atoms: _50  and  _51
REMARK   19  A    between atoms: _51  and  _52
REMARK   20  A    between atoms: _63  and  _64
REMARK   21  A    between atoms: _64  and  _65
REMARK   22  A    between atoms: _64  and  _67
REMARK   23  A    between atoms: _67  and  _68
REMARK   24  A    between atoms: _74  and  _75
REMARK   25  A    between atoms: _75  and  _76
REMARK   26  A    between atoms: _81  and  _82
REMARK   27  A    between atoms: _82  and  _83
REMARK   28  A    between atoms: _82  and  _85
REMARK   29  A    between atoms: _85  and  _86
REMARK   30  A    between atoms: _101  and  _102
REMARK   31  A    between atoms: _102  and  _103
REMARK   32  A    between atoms: _102  and  _105
REMARK   33  A    between atoms: _105  and  _106
REMARK   34  A    between atoms: _106  and  _107
REMARK   35  A    between atoms: _107  and  _108
REMARK                            x       y       z     vdW  Elec       q    Type
REMARK                         _______ _______ _______ _____ _____    ______ ____
ROOT
ATOM      1  CA  SER A   5       5.450  -5.411  27.371  0.00  0.00    +0.184 C 
ENDROOT
BRANCH   1   4
ATOM      2  C   GLN A   4       3.803  -4.052  26.102  0.00  0.00    +0.234 C 
ATOM      3  O   GLN A   4       3.737  -3.203  26.991  0.00  0.00    -0.274 OA
ATOM      4  N   SER A   5       4.549  -5.194  26.234  0.00  0.00    -0.301 N 
ATOM      5  H   SER A   5       4.646  -5.855  25.465  0.00  0.00    +0.150 HD
BRANCH   2   6
ATOM      6  CA  GLN A   4       3.087  -3.877  24.748  0.00  0.00    +0.159 C 
BRANCH   6   8
ATOM      7  C   LEU A   3       5.093  -3.041  23.530  0.00  0.00    +0.234 C 
ATOM      8  N   GLN A   4       4.123  -3.996  23.722  0.00  0.00    -0.302 N 
ATOM      9  H   GLN A   4       4.059  -4.796  23.098  0.00  0.00    +0.150 HD
ATOM     10  O   LEU A   3       5.176  -2.032  24.230  0.00  0.00    -0.274 OA
BRANCH   7  11
ATOM     11  CA  LEU A   3       6.091  -3.343  22.392  0.00  0.00    +0.159 C 
BRANCH  11  14
ATOM     12  C   VAL A   2       8.076  -1.913  21.934  0.00  0.00    +0.234 C 
ATOM     13  O   VAL A   2       8.879  -2.796  22.236  0.00  0.00    -0.274 OA
ATOM     14  N   LEU A   3       6.716  -2.074  22.031  0.00  0.00    -0.302 N 
ATOM     15  H   LEU A   3       6.096  -1.358  21.662  0.00  0.00    +0.150 HD
BRANCH  12  16
ATOM     16  CA  VAL A   2       8.538  -0.545  21.389  0.00  0.00    +0.161 C 
BRANCH  16  18
ATOM     17  C   ALA A   1       7.131   0.191  19.468  0.00  0.00    +0.230 C 
ATOM     18  N   VAL A   2       7.333   0.059  20.820  0.00  0.00    -0.302 N 
ATOM     19  H   VAL A   2       6.597   0.309  21.475  0.00  0.00    +0.150 HD
ATOM     20  O   ALA A   1       7.959  -0.160  18.629  0.00  0.00    -0.274 OA
BRANCH  17  21
ATOM     21  CA  ALA A   1       5.778   0.824  19.083  0.00  0.00    +0.135 C 
ATOM     22  CB  ALA A   1       5.876   1.428  17.689  0.00  0.00    +0.033 C 
BRANCH  21  23
ATOM     23  N   ALA A   1       5.418   1.863  20.065  0.00  0.00    -0.320 NA
ATOM     24  H1  ALA A   1       5.324   2.752  19.570  0.00  0.00    +0.119 HD
ATOM     25  H2  ALA A   1       4.467   1.661  20.386  0.00  0.00    +0.119 HD
ENDBRANCH  21  23
ENDBRANCH  17  21
ENDBRANCH  16  18
BRANCH  16  26
ATOM     26  CB  VAL A   2       9.140   0.325  22.519  0.00  0.00    +0.012 C 
ATOM     27  CG2 VAL A   2       9.955   1.501  21.968  0.00  0.00    +0.009 C 
ATOM     28  CG1 VAL A   2      10.034  -0.491  23.460  0.00  0.00    +0.009 C 
ENDBRANCH  16  26
ENDBRANCH  12  16
ENDBRANCH  11  14
BRANCH  11  29
ATOM     29  CB  LEU A   3       7.124  -4.375  22.872  0.00  0.00    +0.034 C 
BRANCH  29  30
ATOM     30  CG  LEU A   3       7.012  -5.766  22.215  0.00  0.00    -0.015 C 
ATOM     31  CD2 LEU A   3       6.263  -6.719  23.152  0.00  0.00    +0.007 C 
ATOM     32  CD1 LEU A   3       6.294  -5.712  20.866  0.00  0.00    +0.007 C 
ENDBRANCH  29  30
ENDBRANCH  11  29
ENDBRANCH   7  11
ENDBRANCH   6   8
BRANCH   6  33
ATOM     33  CB  GLN A   4       2.003  -4.947  24.540  0.00  0.00    +0.041 C 
BRANCH  33  34
ATOM     34  CG  GLN A   4       2.299  -5.911  23.393  0.00  0.00    +0.098 C 
BRANCH  34  35
ATOM     35  CD  GLN A   4       2.505  -7.348  23.825  0.00  0.00    +0.211 C 
ATOM     36  OE1 GLN A   4       3.319  -7.666  24.687  0.00  0.00    -0.276 OA
ATOM     37  NE2 GLN A   4       1.818  -8.305  23.144  0.00  0.00    -0.329 N 
ATOM     38 HE21 GLN A   4       1.035  -8.110  22.538  0.00  0.00    +0.145 HD
ATOM     39 HE22 GLN A   4       1.935  -9.259  23.464  0.00  0.00    +0.145 HD
ENDBRANCH  34  35
ENDBRANCH  33  34
ENDBRANCH   6  33
ENDBRANCH   2   6
ENDBRANCH   1   4
BRANCH   1  40
ATOM     40  C   SER A   5       6.837  -4.893  26.958  0.00  0.00    +0.236 C 
ATOM     41  N   GLY A   6       6.897  -3.575  26.586  0.00  0.00    -0.305 N 
ATOM     42  H   GLY A   6       6.061  -3.002  26.513  0.00  0.00    +0.149 HD
ATOM     43  O   SER A   5       7.825  -5.631  26.935  0.00  0.00    -0.274 OA
BRANCH  41  44
ATOM     44  CA  GLY A   6       8.149  -2.962  26.185  0.00  0.00    +0.200 C 
BRANCH  44  45
ATOM     45  C   GLY A   6       8.096  -1.474  26.509  0.00  0.00    +0.231 C 
ATOM     46  O   GLY A   6       8.939  -0.930  27.219  0.00  0.00    -0.274 OA
ATOM     47  N   PHE A   7       7.035  -0.805  25.949  0.00  0.00    -0.302 N 
ATOM     48  H   PHE A   7       6.333  -1.307  25.415  0.00  0.00    +0.150 HD
BRANCH  47  49
ATOM     49  CA  PHE A   7       6.936   0.653  25.978  0.00  0.00    +0.163 C 
BRANCH  49  50
ATOM     50  C   PHE A   7       5.892   1.023  27.046  0.00  0.00    +0.234 C 
ATOM     51  N   ARG A   8       4.846   1.798  26.602  0.00  0.00    -0.304 N 
ATOM     52  H   ARG A   8       4.830   2.152  25.646  0.00  0.00    +0.149 HD
ATOM     53  O   PHE A   7       5.956   0.625  28.210  0.00  0.00    -0.274 OA
BRANCH  51  54
ATOM     54  CA  ARG A   8       3.757   2.198  27.483  0.00  0.00    +0.136 C 
BRANCH  54  55
ATOM     55  C   ARG A   8       2.533   1.387  27.081  0.00  0.00    +0.245 C 
ATOM     56  O   ARG A   8       1.929   1.555  26.024  0.00  0.00    -0.299 OA
ENDBRANCH  54  55
BRANCH  54  57
ATOM     57  CB  ARG A   8       3.472   3.701  27.368  0.00  0.00    +0.033 C 
BRANCH  57  58
ATOM     58  CG  ARG A   8       4.193   4.355  26.186  0.00  0.00    +0.039 C 
BRANCH  58  59
ATOM     59  CD  ARG A   8       3.200   4.758  25.094  0.00  0.00    +0.196 C 
BRANCH  59  60
ATOM     60  NE  ARG A   8       3.104   3.719  24.057  0.00  0.00    -0.279 N 
ATOM     61  HE  ARG A   8       2.775   2.798  24.319  0.00  0.00    +0.258 HD
ATOM     62  CZ  ARG A   8       3.401   3.916  22.760  0.00  0.00    +0.341 C 
ATOM     63  NH2 ARG A   8       3.266   2.907  21.895  0.00  0.00    -0.292 N 
ATOM     64 HH21 ARG A   8       2.943   1.992  22.183  0.00  0.00    +0.255 HD
ATOM     65 HH22 ARG A   8       3.481   3.023  20.913  0.00  0.00    +0.255 HD
ATOM     66  NH1 ARG A   8       3.832   5.094  22.305  0.00  0.00    -0.292 N 
ATOM     67 HH11 ARG A   8       3.948   5.889  22.921  0.00  0.00    +0.255 HD
ATOM     68 HH12 ARG A   8       4.052   5.239  21.329  0.00  0.00    +0.255 HD
ENDBRANCH  59  60
ENDBRANCH  58  59
ENDBRANCH  57  58
ENDBRANCH  54  57
ENDBRANCH  51  54
ENDBRANCH  49  50
BRANCH  49  69
ATOM     69  CB  PHE A   7       6.491   1.233  24.623  0.00  0.00    +0.067 C 
BRANCH  69  70
ATOM     70  CG  PHE A   7       7.213   2.499  24.227  0.00  0.00    -0.045 A 
ATOM     71  CD2 PHE A   7       8.222   3.027  25.046  0.00  0.00    +0.004 A 
ATOM     72  CE2 PHE A   7       8.864   4.217  24.702  0.00  0.00    +0.000 A 
ATOM     73  CZ  PHE A   7       8.510   4.888  23.533  0.00  0.00    +0.000 A 
ATOM     74  CE1 PHE A   7       7.511   4.370  22.710  0.00  0.00    +0.000 A 
ATOM     75  CD1 PHE A   7       6.863   3.183  23.055  0.00  0.00    +0.004 A 
ENDBRANCH  69  70
ENDBRANCH  49  69
ENDBRANCH  47  49
ENDBRANCH  44  45
ENDBRANCH  41  44
ENDBRANCH   1  40
BRANCH   1  76
ATOM     76  CB  SER A   5       5.498  -6.882  27.800  0.00  0.00    +0.187 C 
BRANCH  76  77
ATOM     77  OG  SER A   5       6.349  -7.076  28.932  0.00  0.00    -0.393 OA
ATOM     78  H   SER A   5       7.143  -7.538  28.607  0.00  0.00    +0.209 HD
ENDBRANCH  76  77
ENDBRANCH   1  76
TORSDOF 30
ENDMDL
MODEL 3
REMARK VINA RESULT:      -5.5      1.780      2.569
REMARK  Name = AVLQSGFR-mmff94.pdb
REMARK  35 active torsions:
REMARK  status: ('A' for Active; 'I' for Inactive)
REMARK    1  A    between atoms: _1  and  _2
REMARK    2  A    between atoms: _2  and  _3
REMARK    3  A    between atoms: _2  and  _5
REMARK    4  A    between atoms: _11  and  _12
REMARK    5  A    between atoms: _12  and  _13
REMARK    6  A    between atoms: _12  and  _15
REMARK    7  A    between atoms: _15  and  _16
REMARK    8  A    between atoms: _15  and  _17
REMARK    9  A    between atoms: _27  and  _28
REMARK   10  A    between atoms: _28  and  _29
REMARK   11  A    between atoms: _28  and  _31
REMARK   12  A    between atoms: _31  and  _32
REMARK   13  A    between atoms: _32  and  _33
REMARK   14  A    between atoms: _32  and  _34
REMARK   15  A    between atoms: _46  and  _47
REMARK   16  A    between atoms: _47  and  _48
REMARK   17  A    between atoms: _47  and  _50
REMARK   18  A    between atoms: _50  and  _51
REMARK   19  A    between atoms: _51  and  _52
REMARK   20  A    between atoms: _63  and  _64
REMARK   21  A    between atoms: _64  and  _65
REMARK   22  A    between atoms: _64  and  _67
REMARK   23  A    between atoms: _67  and  _68
REMARK   24  A    between atoms: _74  and  _75
REMARK   25  A    between atoms: _75  and  _76
REMARK   26  A    between atoms: _81  and  _82
REMARK   27  A    between atoms: _82  and  _83
REMARK   28  A    between atoms: _82  and  _85
REMARK   29  A    between atoms: _85  and  _86
REMARK   30  A    between atoms: _101  and  _102
REMARK   31  A    between atoms: _102  and  _103
REMARK   32  A    between atoms: _102  and  _105
REMARK   33  A    between atoms: _105  and  _106
REMARK   34  A    between atoms: _106  and  _107
REMARK   35  A    between atoms: _107  and  _108
REMARK                            x       y       z     vdW  Elec       q    Type
REMARK                         _______ _______ _______ _____ _____    ______ ____
ROOT
ATOM      1  CA  SER A   5       6.641  -4.342  22.411  0.00  0.00    +0.184 C 
ENDROOT
BRANCH   1   4
ATOM      2  C   GLN A   4       7.748  -2.523  23.690  0.00  0.00    +0.234 C 
ATOM      3  O   GLN A   4       6.712  -1.861  23.750  0.00  0.00    -0.274 OA
ATOM      4  N   SER A   5       7.825  -3.701  22.994  0.00  0.00    -0.301 N 
ATOM      5  H   SER A   5       8.670  -4.270  23.008  0.00  0.00    +0.150 HD
BRANCH   2   6
ATOM      6  CA  GLN A   4       9.033  -2.102  24.431  0.00  0.00    +0.159 C 
BRANCH   6   8
ATOM      7  C   LEU A   3       9.887  -0.571  22.661  0.00  0.00    +0.234 C 
ATOM      8  N   GLN A   4       9.380  -0.775  23.922  0.00  0.00    -0.302 N 
ATOM      9  H   GLN A   4       9.293   0.001  24.574  0.00  0.00    +0.150 HD
ATOM     10  O   LEU A   3      10.056  -1.489  21.859  0.00  0.00    -0.274 OA
BRANCH   7  11
ATOM     11  CA  LEU A   3      10.199   0.901  22.314  0.00  0.00    +0.159 C 
BRANCH  11  14
ATOM     12  C   VAL A   2       7.813   1.580  22.108  0.00  0.00    +0.234 C 
ATOM     13  O   VAL A   2       7.535   1.234  23.256  0.00  0.00    -0.274 OA
ATOM     14  N   LEU A   3       9.058   1.406  21.556  0.00  0.00    -0.302 N 
ATOM     15  H   LEU A   3       9.268   1.811  20.647  0.00  0.00    +0.150 HD
BRANCH  12  16
ATOM     16  CA  VAL A   2       6.780   2.270  21.194  0.00  0.00    +0.161 C 
BRANCH  16  18
ATOM     17  C   ALA A   1       6.504   0.420  19.547  0.00  0.00    +0.230 C 
ATOM     18  N   VAL A   2       6.022   1.175  20.588  0.00  0.00    -0.302 N 
ATOM     19  H   VAL A   2       5.139   0.934  21.030  0.00  0.00    +0.150 HD
ATOM     20  O   ALA A   1       7.597   0.624  19.020  0.00  0.00    -0.274 OA
BRANCH  17  21
ATOM     21  CA  ALA A   1       5.558  -0.706  19.082  0.00  0.00    +0.135 C 
ATOM     22  CB  ALA A   1       5.731  -1.922  19.982  0.00  0.00    +0.033 C 
BRANCH  21  23
ATOM     23  N   ALA A   1       5.858  -1.061  17.683  0.00  0.00    -0.320 NA
ATOM     24  H1  ALA A   1       4.998  -0.971  17.139  0.00  0.00    +0.119 HD
ATOM     25  H2  ALA A   1       6.464  -0.327  17.306  0.00  0.00    +0.119 HD
ENDBRANCH  21  23
ENDBRANCH  17  21
ENDBRANCH  16  18
BRANCH  16  26
ATOM     26  CB  VAL A   2       5.867   3.220  22.009  0.00  0.00    +0.012 C 
ATOM     27  CG2 VAL A   2       6.630   4.442  22.532  0.00  0.00    +0.009 C 
ATOM     28  CG1 VAL A   2       5.210   2.507  23.197  0.00  0.00    +0.009 C 
ENDBRANCH  16  26
ENDBRANCH  12  16
ENDBRANCH  11  14
BRANCH  11  29
ATOM     29  CB  LEU A   3      10.427   1.699  23.607  0.00  0.00    +0.034 C 
BRANCH  29  30
ATOM     30  CG  LEU A   3      10.334   3.231  23.455  0.00  0.00    -0.015 C 
ATOM     31  CD2 LEU A   3       9.488   3.811  24.593  0.00  0.00    +0.007 C 
ATOM     32  CD1 LEU A   3      11.712   3.896  23.456  0.00  0.00    +0.007 C 
ENDBRANCH  29  30
ENDBRANCH  11  29
ENDBRANCH   7  11
ENDBRANCH   6   8
BRANCH   6  33
ATOM     33  CB  GLN A   4       8.817  -2.053  25.952  0.00  0.00    +0.041 C 
BRANCH  33  34
ATOM     34  CG  GLN A   4       8.030  -3.240  26.503  0.00  0.00    +0.098 C 
BRANCH  34  35
ATOM     35  CD  GLN A   4       8.812  -4.537  26.551  0.00  0.00    +0.211 C 
ATOM     36  OE1 GLN A   4      10.031  -4.576  26.413  0.00  0.00    -0.276 OA
ATOM     37  NE2 GLN A   4       8.095  -5.689  26.654  0.00  0.00    -0.329 N 
ATOM     38 HE21 GLN A   4       7.122  -5.723  26.917  0.00  0.00    +0.145 HD
ATOM     39 HE22 GLN A   4       8.628  -6.548  26.721  0.00  0.00    +0.145 HD
ENDBRANCH  34  35
ENDBRANCH  33  34
ENDBRANCH   6  33
ENDBRANCH   2   6
ENDBRANCH   1   4
BRANCH   1  40
ATOM     40  C   SER A   5       5.661  -4.622  23.562  0.00  0.00    +0.236 C 
ATOM     41  N   GLY A   6       4.446  -3.992  23.478  0.00  0.00    -0.305 N 
ATOM     42  H   GLY A   6       4.240  -3.322  22.743  0.00  0.00    +0.149 HD
ATOM     43  O   SER A   5       5.967  -5.344  24.513  0.00  0.00    -0.274 OA
BRANCH  41  44
ATOM     44  CA  GLY A   6       3.429  -4.183  24.495  0.00  0.00    +0.200 C 
BRANCH  44  45
ATOM     45  C   GLY A   6       3.458  -2.995  25.450  0.00  0.00    +0.231 C 
ATOM     46  O   GLY A   6       2.445  -2.358  25.731  0.00  0.00    -0.274 OA
ATOM     47  N   PHE A   7       4.700  -2.701  25.958  0.00  0.00    -0.302 N 
ATOM     48  H   PHE A   7       5.517  -3.221  25.655  0.00  0.00    +0.150 HD
BRANCH  47  49
ATOM     49  CA  PHE A   7       4.886  -1.736  27.040  0.00  0.00    +0.163 C 
BRANCH  49  50
ATOM     50  C   PHE A   7       4.398  -2.399  28.339  0.00  0.00    +0.234 C 
ATOM     51  N   ARG A   8       4.701  -3.734  28.468  0.00  0.00    -0.304 N 
ATOM     52  H   ARG A   8       5.151  -4.241  27.706  0.00  0.00    +0.149 HD
ATOM     53  O   PHE A   7       3.811  -1.778  29.227  0.00  0.00    -0.274 OA
BRANCH  51  54
ATOM     54  CA  ARG A   8       4.342  -4.493  29.659  0.00  0.00    +0.136 C 
BRANCH  54  55
ATOM     55  C   ARG A   8       5.371  -5.604  29.812  0.00  0.00    +0.245 C 
ATOM     56  O   ARG A   8       6.320  -5.755  29.046  0.00  0.00    -0.299 OA
ENDBRANCH  54  55
BRANCH  54  57
ATOM     57  CB  ARG A   8       2.928  -5.077  29.540  0.00  0.00    +0.033 C 
BRANCH  57  58
ATOM     58  CG  ARG A   8       2.531  -5.387  28.094  0.00  0.00    +0.039 C 
BRANCH  58  59
ATOM     59  CD  ARG A   8       2.394  -6.894  27.874  0.00  0.00    +0.196 C 
BRANCH  59  60
ATOM     60  NE  ARG A   8       2.583  -7.242  26.457  0.00  0.00    -0.279 N 
ATOM     61  HE  ARG A   8       1.764  -7.381  25.876  0.00  0.00    +0.258 HD
ATOM     62  CZ  ARG A   8       3.782  -7.364  25.861  0.00  0.00    +0.341 C 
ATOM     63  NH2 ARG A   8       3.842  -7.670  24.562  0.00  0.00    -0.292 N 
ATOM     64 HH21 ARG A   8       3.010  -7.813  24.005  0.00  0.00    +0.255 HD
ATOM     65 HH22 ARG A   8       4.730  -7.769  24.085  0.00  0.00    +0.255 HD
ATOM     66  NH1 ARG A   8       4.924  -7.190  26.530  0.00  0.00    -0.292 N 
ATOM     67 HH11 ARG A   8       4.930  -6.954  27.514  0.00  0.00    +0.255 HD
ATOM     68 HH12 ARG A   8       5.824  -7.280  26.078  0.00  0.00    +0.255 HD
ENDBRANCH  59  60
ENDBRANCH  58  59
ENDBRANCH  57  58
ENDBRANCH  54  57
ENDBRANCH  51  54
ENDBRANCH  49  50
BRANCH  49  69
ATOM     69  CB  PHE A   7       4.083  -0.442  26.808  0.00  0.00    +0.067 C 
BRANCH  69  70
ATOM     70  CG  PHE A   7       4.930   0.807  26.753  0.00  0.00    -0.045 A 
ATOM     71  CD2 PHE A   7       6.324   0.715  26.625  0.00  0.00    +0.004 A 
ATOM     72  CE2 PHE A   7       7.112   1.867  26.612  0.00  0.00    +0.000 A 
ATOM     73  CZ  PHE A   7       6.515   3.122  26.719  0.00  0.00    +0.000 A 
ATOM     74  CE1 PHE A   7       5.130   3.225  26.843  0.00  0.00    +0.000 A 
ATOM     75  CD1 PHE A   7       4.340   2.074  26.862  0.00  0.00    +0.004 A 
ENDBRANCH  69  70
ENDBRANCH  49  69
ENDBRANCH  47  49
ENDBRANCH  44  45
ENDBRANCH  41  44
ENDBRANCH   1  40
BRANCH   1  76
ATOM     76  CB  SER A   5       6.994  -5.621  21.642  0.00  0.00    +0.187 C 
BRANCH  76  77
ATOM     77  OG  SER A   5       5.945  -6.588  21.714  0.00  0.00    -0.393 OA
ATOM     78  H   SER A   5       5.247  -6.200  22.273  0.00  0.00    +0.209 HD
ENDBRANCH  76  77
ENDBRANCH   1  76
TORSDOF 30
ENDMDL
MODEL 4
REMARK VINA RESULT:      -5.2      2.181      5.780
REMARK  Name = AVLQSGFR-mmff94.pdb
REMARK  35 active torsions:
REMARK  status: ('A' for Active; 'I' for Inactive)
REMARK    1  A    between atoms: _1  and  _2
REMARK    2  A    between atoms: _2  and  _3
REMARK    3  A    between atoms: _2  and  _5
REMARK    4  A    between atoms: _11  and  _12
REMARK    5  A    between atoms: _12  and  _13
REMARK    6  A    between atoms: _12  and  _15
REMARK    7  A    between atoms: _15  and  _16
REMARK    8  A    between atoms: _15  and  _17
REMARK    9  A    between atoms: _27  and  _28
REMARK   10  A    between atoms: _28  and  _29
REMARK   11  A    between atoms: _28  and  _31
REMARK   12  A    between atoms: _31  and  _32
REMARK   13  A    between atoms: _32  and  _33
REMARK   14  A    between atoms: _32  and  _34
REMARK   15  A    between atoms: _46  and  _47
REMARK   16  A    between atoms: _47  and  _48
REMARK   17  A    between atoms: _47  and  _50
REMARK   18  A    between atoms: _50  and  _51
REMARK   19  A    between atoms: _51  and  _52
REMARK   20  A    between atoms: _63  and  _64
REMARK   21  A    between atoms: _64  and  _65
REMARK   22  A    between atoms: _64  and  _67
REMARK   23  A    between atoms: _67  and  _68
REMARK   24  A    between atoms: _74  and  _75
REMARK   25  A    between atoms: _75  and  _76
REMARK   26  A    between atoms: _81  and  _82
REMARK   27  A    between atoms: _82  and  _83
REMARK   28  A    between atoms: _82  and  _85
REMARK   29  A    between atoms: _85  and  _86
REMARK   30  A    between atoms: _101  and  _102
REMARK   31  A    between atoms: _102  and  _103
REMARK   32  A    between atoms: _102  and  _105
REMARK   33  A    between atoms: _105  and  _106
REMARK   34  A    between atoms: _106  and  _107
REMARK   35  A    between atoms: _107  and  _108
REMARK                            x       y       z     vdW  Elec       q    Type
REMARK                         _______ _______ _______ _____ _____    ______ ____
ROOT
ATOM      1  CA  SER A   5      10.385   2.794  23.475  0.00  0.00    +0.184 C 
ENDROOT
BRANCH   1   4
ATOM      2  C   GLN A   4       8.917   4.692  24.122  0.00  0.00    +0.234 C 
ATOM      3  O   GLN A   4       9.583   5.499  23.473  0.00  0.00    -0.274 OA
ATOM      4  N   SER A   5       9.276   3.374  24.242  0.00  0.00    -0.301 N 
ATOM      5  H   SER A   5       8.681   2.705  24.727  0.00  0.00    +0.150 HD
BRANCH   2   6
ATOM      6  CA  GLN A   4       7.599   5.088  24.816  0.00  0.00    +0.159 C 
BRANCH   6   8
ATOM      7  C   LEU A   3       6.041   4.552  22.947  0.00  0.00    +0.234 C 
ATOM      8  N   GLN A   4       6.552   4.277  24.193  0.00  0.00    -0.302 N 
ATOM      9  H   GLN A   4       6.161   3.525  24.755  0.00  0.00    +0.150 HD
ATOM     10  O   LEU A   3       6.451   5.483  22.255  0.00  0.00    -0.274 OA
BRANCH   7  11
ATOM     11  CA  LEU A   3       4.936   3.587  22.467  0.00  0.00    +0.159 C 
BRANCH  11  14
ATOM     12  C   VAL A   2       6.507   1.745  21.887  0.00  0.00    +0.234 C 
ATOM     13  O   VAL A   2       6.974   1.681  23.024  0.00  0.00    -0.274 OA
ATOM     14  N   LEU A   3       5.560   2.670  21.519  0.00  0.00    -0.302 N 
ATOM     15  H   LEU A   3       5.125   2.608  20.602  0.00  0.00    +0.150 HD
BRANCH  12  16
ATOM     16  CA  VAL A   2       6.932   0.763  20.775  0.00  0.00    +0.161 C 
BRANCH  16  18
ATOM     17  C   ALA A   1       7.166  -1.568  21.624  0.00  0.00    +0.230 C 
ATOM     18  N   VAL A   2       6.383  -0.529  21.185  0.00  0.00    -0.302 N 
ATOM     19  H   VAL A   2       5.369  -0.604  21.211  0.00  0.00    +0.150 HD
ATOM     20  O   ALA A   1       8.392  -1.507  21.677  0.00  0.00    -0.274 OA
BRANCH  17  21
ATOM     21  CA  ALA A   1       6.381  -2.829  22.038  0.00  0.00    +0.135 C 
ATOM     22  CB  ALA A   1       7.351  -3.899  22.520  0.00  0.00    +0.033 C 
BRANCH  21  23
ATOM     23  N   ALA A   1       5.600  -3.329  20.892  0.00  0.00    -0.320 NA
ATOM     24  H1  ALA A   1       6.231  -3.839  20.273  0.00  0.00    +0.119 HD
ATOM     25  H2  ALA A   1       4.968  -4.053  21.247  0.00  0.00    +0.119 HD
ENDBRANCH  21  23
ENDBRANCH  17  21
ENDBRANCH  16  18
BRANCH  16  26
ATOM     26  CB  VAL A   2       6.382   1.213  19.400  0.00  0.00    +0.012 C 
ATOM     27  CG2 VAL A   2       4.887   0.909  19.251  0.00  0.00    +0.009 C 
ATOM     28  CG1 VAL A   2       7.134   0.556  18.236  0.00  0.00    +0.009 C 
ENDBRANCH  16  26
ENDBRANCH  12  16
ENDBRANCH  11  14
BRANCH  11  29
ATOM     29  CB  LEU A   3       4.339   2.845  23.674  0.00  0.00    +0.034 C 
BRANCH  29  30
ATOM     30  CG  LEU A   3       2.910   3.273  24.064  0.00  0.00    -0.015 C 
ATOM     31  CD2 LEU A   3       2.974   4.356  25.146  0.00  0.00    +0.007 C 
ATOM     32  CD1 LEU A   3       2.118   3.799  22.866  0.00  0.00    +0.007 C 
ENDBRANCH  29  30
ENDBRANCH  11  29
ENDBRANCH   7  11
ENDBRANCH   6   8
BRANCH   6  33
ATOM     33  CB  GLN A   4       7.654   4.819  26.329  0.00  0.00    +0.041 C 
BRANCH  33  34
ATOM     34  CG  GLN A   4       6.700   3.722  26.797  0.00  0.00    +0.098 C 
BRANCH  34  35
ATOM     35  CD  GLN A   4       7.054   3.121  28.141  0.00  0.00    +0.211 C 
ATOM     36  OE1 GLN A   4       7.096   3.789  29.170  0.00  0.00    -0.276 OA
ATOM     37  NE2 GLN A   4       7.429   1.813  28.156  0.00  0.00    -0.329 N 
ATOM     38 HE21 GLN A   4       7.277   1.177  27.389  0.00  0.00    +0.145 HD
ATOM     39 HE22 GLN A   4       7.629   1.411  29.064  0.00  0.00    +0.145 HD
ENDBRANCH  34  35
ENDBRANCH  33  34
ENDBRANCH   6  33
ENDBRANCH   2   6
ENDBRANCH   1   4
BRANCH   1  40
ATOM     40  C   SER A   5      10.618   1.374  24.014  0.00  0.00    +0.236 C 
ATOM     41  N   GLY A   6       9.521   0.551  24.024  0.00  0.00    -0.305 N 
ATOM     42  H   GLY A   6       8.597   0.888  23.766  0.00  0.00    +0.149 HD
ATOM     43  O   SER A   5      11.718   1.013  24.438  0.00  0.00    -0.274 OA
BRANCH  41  44
ATOM     44  CA  GLY A   6       9.611  -0.816  24.498  0.00  0.00    +0.200 C 
BRANCH  44  45
ATOM     45  C   GLY A   6       8.586  -1.023  25.607  0.00  0.00    +0.231 C 
ATOM     46  O   GLY A   6       8.721  -0.525  26.722  0.00  0.00    -0.274 OA
ATOM     47  N   PHE A   7       7.515  -1.808  25.255  0.00  0.00    -0.302 N 
ATOM     48  H   PHE A   7       7.473  -2.242  24.339  0.00  0.00    +0.150 HD
BRANCH  47  49
ATOM     49  CA  PHE A   7       6.340  -1.945  26.113  0.00  0.00    +0.163 C 
BRANCH  49  50
ATOM     50  C   PHE A   7       5.777  -3.362  25.903  0.00  0.00    +0.234 C 
ATOM     51  N   ARG A   8       4.594  -3.427  25.206  0.00  0.00    -0.304 N 
ATOM     52  H   ARG A   8       4.107  -2.576  24.927  0.00  0.00    +0.149 HD
ATOM     53  O   PHE A   7       6.359  -4.376  26.292  0.00  0.00    -0.274 OA
BRANCH  51  54
ATOM     54  CA  ARG A   8       3.956  -4.699  24.891  0.00  0.00    +0.136 C 
BRANCH  54  55
ATOM     55  C   ARG A   8       3.570  -4.657  23.420  0.00  0.00    +0.245 C 
ATOM     56  O   ARG A   8       3.916  -5.510  22.606  0.00  0.00    -0.299 OA
ENDBRANCH  54  55
BRANCH  54  57
ATOM     57  CB  ARG A   8       2.720  -4.933  25.769  0.00  0.00    +0.033 C 
BRANCH  57  58
ATOM     58  CG  ARG A   8       2.929  -6.036  26.811  0.00  0.00    +0.039 C 
BRANCH  58  59
ATOM     59  CD  ARG A   8       3.973  -7.047  26.337  0.00  0.00    +0.196 C 
BRANCH  59  60
ATOM     60  NE  ARG A   8       5.191  -6.976  27.158  0.00  0.00    -0.279 N 
ATOM     61  HE  ARG A   8       6.074  -6.776  26.704  0.00  0.00    +0.258 HD
ATOM     62  CZ  ARG A   8       5.212  -7.133  28.493  0.00  0.00    +0.341 C 
ATOM     63  NH2 ARG A   8       6.373  -7.035  29.148  0.00  0.00    -0.292 N 
ATOM     64 HH21 ARG A   8       7.244  -6.843  28.670  0.00  0.00    +0.255 HD
ATOM     65 HH22 ARG A   8       6.422  -7.148  30.152  0.00  0.00    +0.255 HD
ATOM     66  NH1 ARG A   8       4.104  -7.388  29.192  0.00  0.00    -0.292 N 
ATOM     67 HH11 ARG A   8       3.201  -7.469  28.743  0.00  0.00    +0.255 HD
ATOM     68 HH12 ARG A   8       4.124  -7.503  30.197  0.00  0.00    +0.255 HD
ENDBRANCH  59  60
ENDBRANCH  58  59
ENDBRANCH  57  58
ENDBRANCH  54  57
ENDBRANCH  51  54
ENDBRANCH  49  50
BRANCH  49  69
ATOM     69  CB  PHE A   7       5.245  -0.918  25.769  0.00  0.00    +0.067 C 
BRANCH  69  70
ATOM     70  CG  PHE A   7       4.727  -0.147  26.960  0.00  0.00    -0.045 A 
ATOM     71  CD2 PHE A   7       4.872  -0.661  28.257  0.00  0.00    +0.004 A 
ATOM     72  CE2 PHE A   7       4.360   0.031  29.356  0.00  0.00    +0.000 A 
ATOM     73  CZ  PHE A   7       3.705   1.247  29.170  0.00  0.00    +0.000 A 
ATOM     74  CE1 PHE A   7       3.559   1.769  27.886  0.00  0.00    +0.000 A 
ATOM     75  CD1 PHE A   7       4.065   1.075  26.785  0.00  0.00    +0.004 A 
ENDBRANCH  69  70
ENDBRANCH  49  69
ENDBRANCH  47  49
ENDBRANCH  44  45
ENDBRANCH  41  44
ENDBRANCH   1  40
BRANCH   1  76
ATOM     76  CB  SER A   5      11.655   3.648  23.558  0.00  0.00    +0.187 C 
BRANCH  76  77
ATOM     77  OG  SER A   5      11.891   4.365  22.345  0.00  0.00    -0.393 OA
ATOM     78  H   SER A   5      11.488   5.245  22.459  0.00  0.00    +0.209 HD
ENDBRANCH  76  77
ENDBRANCH   1  76
TORSDOF 30
ENDMDL
MODEL 5
REMARK VINA RESULT:      -5.2      2.270      5.877
REMARK  Name = AVLQSGFR-mmff94.pdb
REMARK  35 active torsions:
REMARK  status: ('A' for Active; 'I' for Inactive)
REMARK    1  A    between atoms: _1  and  _2
REMARK    2  A    between atoms: _2  and  _3
REMARK    3  A    between atoms: _2  and  _5
REMARK    4  A    between atoms: _11  and  _12
REMARK    5  A    between atoms: _12  and  _13
REMARK    6  A    between atoms: _12  and  _15
REMARK    7  A    between atoms: _15  and  _16
REMARK    8  A    between atoms: _15  and  _17
REMARK    9  A    between atoms: _27  and  _28
REMARK   10  A    between atoms: _28  and  _29
REMARK   11  A    between atoms: _28  and  _31
REMARK   12  A    between atoms: _31  and  _32
REMARK   13  A    between atoms: _32  and  _33
REMARK   14  A    between atoms: _32  and  _34
REMARK   15  A    between atoms: _46  and  _47
REMARK   16  A    between atoms: _47  and  _48
REMARK   17  A    between atoms: _47  and  _50
REMARK   18  A    between atoms: _50  and  _51
REMARK   19  A    between atoms: _51  and  _52
REMARK   20  A    between atoms: _63  and  _64
REMARK   21  A    between atoms: _64  and  _65
REMARK   22  A    between atoms: _64  and  _67
REMARK   23  A    between atoms: _67  and  _68
REMARK   24  A    between atoms: _74  and  _75
REMARK   25  A    between atoms: _75  and  _76
REMARK   26  A    between atoms: _81  and  _82
REMARK   27  A    between atoms: _82  and  _83
REMARK   28  A    between atoms: _82  and  _85
REMARK   29  A    between atoms: _85  and  _86
REMARK   30  A    between atoms: _101  and  _102
REMARK   31  A    between atoms: _102  and  _103
REMARK   32  A    between atoms: _102  and  _105
REMARK   33  A    between atoms: _105  and  _106
REMARK   34  A    between atoms: _106  and  _107
REMARK   35  A    between atoms: _107  and  _108
REMARK                            x       y       z     vdW  Elec       q    Type
REMARK                         _______ _______ _______ _____ _____    ______ ____
ROOT
ATOM      1  CA  SER A   5       9.216  -0.970  25.703  0.00  0.00    +0.184 C 
ENDROOT
BRANCH   1   4
ATOM      2  C   GLN A   4      10.453   0.693  24.333  0.00  0.00    +0.234 C 
ATOM      3  O   GLN A   4      11.418   0.687  25.098  0.00  0.00    -0.274 OA
ATOM      4  N   SER A   5       9.311  -0.020  24.588  0.00  0.00    -0.301 N 
ATOM      5  H   SER A   5       8.548  -0.057  23.915  0.00  0.00    +0.150 HD
BRANCH   2   6
ATOM      6  CA  GLN A   4      10.469   1.469  23.001  0.00  0.00    +0.159 C 
BRANCH   6   8
ATOM      7  C   LEU A   3       8.904   0.171  21.563  0.00  0.00    +0.234 C 
ATOM      8  N   GLN A   4       9.163   1.243  22.383  0.00  0.00    -0.302 N 
ATOM      9  H   GLN A   4       8.456   1.959  22.531  0.00  0.00    +0.150 HD
ATOM     10  O   LEU A   3       9.746  -0.692  21.316  0.00  0.00    -0.274 OA
BRANCH   7  11
ATOM     11  CA  LEU A   3       7.468   0.112  20.999  0.00  0.00    +0.159 C 
BRANCH  11  14
ATOM     12  C   VAL A   2       6.275   0.859  23.053  0.00  0.00    +0.234 C 
ATOM     13  O   VAL A   2       6.465  -0.204  23.644  0.00  0.00    -0.274 OA
ATOM     14  N   LEU A   3       6.678   1.077  21.758  0.00  0.00    -0.302 N 
ATOM     15  H   LEU A   3       6.600   2.007  21.356  0.00  0.00    +0.150 HD
BRANCH  12  16
ATOM     16  CA  VAL A   2       5.586   2.058  23.737  0.00  0.00    +0.161 C 
BRANCH  16  18
ATOM     17  C   ALA A   1       6.070   2.699  26.096  0.00  0.00    +0.230 C 
ATOM     18  N   VAL A   2       6.495   2.450  24.814  0.00  0.00    -0.302 N 
ATOM     19  H   VAL A   2       7.487   2.452  24.593  0.00  0.00    +0.150 HD
ATOM     20  O   ALA A   1       4.889   2.643  26.433  0.00  0.00    -0.274 OA
BRANCH  17  21
ATOM     21  CA  ALA A   1       7.197   3.065  27.083  0.00  0.00    +0.135 C 
ATOM     22  CB  ALA A   1       6.795   2.652  28.492  0.00  0.00    +0.033 C 
BRANCH  21  23
ATOM     23  N   ALA A   1       7.453   4.516  27.031  0.00  0.00    -0.320 NA
ATOM     24  H1  ALA A   1       8.316   4.670  26.508  0.00  0.00    +0.119 HD
ATOM     25  H2  ALA A   1       6.730   4.931  26.436  0.00  0.00    +0.119 HD
ENDBRANCH  21  23
ENDBRANCH  17  21
ENDBRANCH  16  18
BRANCH  16  26
ATOM     26  CB  VAL A   2       5.356   3.211  22.729  0.00  0.00    +0.012 C 
ATOM     27  CG2 VAL A   2       6.234   4.429  23.038  0.00  0.00    +0.009 C 
ATOM     28  CG1 VAL A   2       3.890   3.661  22.695  0.00  0.00    +0.009 C 
ENDBRANCH  16  26
ENDBRANCH  12  16
ENDBRANCH  11  14
BRANCH  11  29
ATOM     29  CB  LEU A   3       7.489   0.442  19.498  0.00  0.00    +0.034 C 
BRANCH  29  30
ATOM     30  CG  LEU A   3       6.249  -0.025  18.709  0.00  0.00    -0.015 C 
ATOM     31  CD2 LEU A   3       5.687  -1.303  19.340  0.00  0.00    +0.007 C 
ATOM     32  CD1 LEU A   3       5.155   1.043  18.667  0.00  0.00    +0.007 C 
ENDBRANCH  29  30
ENDBRANCH  11  29
ENDBRANCH   7  11
ENDBRANCH   6   8
BRANCH   6  33
ATOM     33  CB  GLN A   4      10.702   2.972  23.226  0.00  0.00    +0.041 C 
BRANCH  33  34
ATOM     34  CG  GLN A   4       9.628   3.642  24.081  0.00  0.00    +0.098 C 
BRANCH  34  35
ATOM     35  CD  GLN A   4       9.742   5.151  24.155  0.00  0.00    +0.211 C 
ATOM     36  OE1 GLN A   4       9.375   5.792  25.135  0.00  0.00    -0.276 OA
ATOM     37  NE2 GLN A   4      10.181   5.794  23.039  0.00  0.00    -0.329 N 
ATOM     38 HE21 GLN A   4      10.633   5.331  22.265  0.00  0.00    +0.145 HD
ATOM     39 HE22 GLN A   4      10.289   6.799  23.110  0.00  0.00    +0.145 HD
ENDBRANCH  34  35
ENDBRANCH  33  34
ENDBRANCH   6  33
ENDBRANCH   2   6
ENDBRANCH   1   4
BRANCH   1  40
ATOM     40  C   SER A   5       8.817  -2.331  25.110  0.00  0.00    +0.236 C 
ATOM     41  N   GLY A   6       8.158  -3.182  25.958  0.00  0.00    -0.305 N 
ATOM     42  H   GLY A   6       8.016  -2.957  26.939  0.00  0.00    +0.149 HD
ATOM     43  O   SER A   5       9.101  -2.642  23.951  0.00  0.00    -0.274 OA
BRANCH  41  44
ATOM     44  CA  GLY A   6       7.717  -4.491  25.517  0.00  0.00    +0.200 C 
BRANCH  44  45
ATOM     45  C   GLY A   6       7.148  -5.250  26.710  0.00  0.00    +0.231 C 
ATOM     46  O   GLY A   6       7.870  -5.759  27.565  0.00  0.00    -0.274 OA
ATOM     47  N   PHE A   7       5.776  -5.315  26.744  0.00  0.00    -0.302 N 
ATOM     48  H   PHE A   7       5.223  -4.927  25.987  0.00  0.00    +0.150 HD
BRANCH  47  49
ATOM     49  CA  PHE A   7       5.053  -5.818  27.911  0.00  0.00    +0.163 C 
BRANCH  49  50
ATOM     50  C   PHE A   7       3.714  -6.389  27.412  0.00  0.00    +0.234 C 
ATOM     51  N   ARG A   8       3.498  -6.286  26.058  0.00  0.00    -0.304 N 
ATOM     52  H   ARG A   8       4.162  -5.793  25.462  0.00  0.00    +0.149 HD
ATOM     53  O   PHE A   7       2.902  -6.938  28.160  0.00  0.00    -0.274 OA
BRANCH  51  54
ATOM     54  CA  ARG A   8       2.296  -6.816  25.429  0.00  0.00    +0.136 C 
BRANCH  54  55
ATOM     55  C   ARG A   8       2.699  -8.078  24.680  0.00  0.00    +0.245 C 
ATOM     56  O   ARG A   8       2.269  -9.195  24.958  0.00  0.00    -0.299 OA
ENDBRANCH  54  55
BRANCH  54  57
ATOM     57  CB  ARG A   8       1.674  -5.793  24.470  0.00  0.00    +0.033 C 
BRANCH  57  58
ATOM     58  CG  ARG A   8       2.588  -4.593  24.203  0.00  0.00    +0.039 C 
BRANCH  58  59
ATOM     59  CD  ARG A   8       3.626  -4.924  23.130  0.00  0.00    +0.196 C 
BRANCH  59  60
ATOM     60  NE  ARG A   8       4.666  -3.886  23.062  0.00  0.00    -0.279 N 
ATOM     61  HE  ARG A   8       4.553  -3.046  23.617  0.00  0.00    +0.258 HD
ATOM     62  CZ  ARG A   8       5.786  -3.985  22.325  0.00  0.00    +0.341 C 
ATOM     63  NH2 ARG A   8       6.676  -2.989  22.344  0.00  0.00    -0.292 N 
ATOM     64 HH21 ARG A   8       6.537  -2.155  22.901  0.00  0.00    +0.255 HD
ATOM     65 HH22 ARG A   8       7.528  -3.034  21.801  0.00  0.00    +0.255 HD
ATOM     66  NH1 ARG A   8       6.040  -5.054  21.566  0.00  0.00    -0.292 N 
ATOM     67 HH11 ARG A   8       5.399  -5.835  21.520  0.00  0.00    +0.255 HD
ATOM     68 HH12 ARG A   8       6.885  -5.126  21.015  0.00  0.00    +0.255 HD
ENDBRANCH  59  60
ENDBRANCH  58  59
ENDBRANCH  57  58
ENDBRANCH  54  57
ENDBRANCH  51  54
ENDBRANCH  49  50
BRANCH  49  69
ATOM     69  CB  PHE A   7       4.770  -4.708  28.941  0.00  0.00    +0.067 C 
BRANCH  69  70
ATOM     70  CG  PHE A   7       4.079  -3.495  28.366  0.00  0.00    -0.045 A 
ATOM     71  CD2 PHE A   7       2.683  -3.370  28.440  0.00  0.00    +0.004 A 
ATOM     72  CE2 PHE A   7       2.039  -2.269  27.876  0.00  0.00    +0.000 A 
ATOM     73  CZ  PHE A   7       2.782  -1.277  27.238  0.00  0.00    +0.000 A 
ATOM     74  CE1 PHE A   7       4.170  -1.389  27.162  0.00  0.00    +0.000 A 
ATOM     75  CD1 PHE A   7       4.816  -2.494  27.721  0.00  0.00    +0.004 A 
ENDBRANCH  69  70
ENDBRANCH  49  69
ENDBRANCH  47  49
ENDBRANCH  44  45
ENDBRANCH  41  44
ENDBRANCH   1  40
BRANCH   1  76
ATOM     76  CB  SER A   5       8.226  -0.506  26.777  0.00  0.00    +0.187 C 
BRANCH  76  77
ATOM     77  OG  SER A   5       8.887  -0.173  27.998  0.00  0.00    -0.393 OA
ATOM     78  H   SER A   5       9.765   0.173  27.754  0.00  0.00    +0.209 HD
ENDBRANCH  76  77
ENDBRANCH   1  76
TORSDOF 30
ENDMDL
MODEL 6
REMARK VINA RESULT:      -5.1      2.352      6.603
REMARK  Name = AVLQSGFR-mmff94.pdb
REMARK  35 active torsions:
REMARK  status: ('A' for Active; 'I' for Inactive)
REMARK    1  A    between atoms: _1  and  _2
REMARK    2  A    between atoms: _2  and  _3
REMARK    3  A    between atoms: _2  and  _5
REMARK    4  A    between atoms: _11  and  _12
REMARK    5  A    between atoms: _12  and  _13
REMARK    6  A    between atoms: _12  and  _15
REMARK    7  A    between atoms: _15  and  _16
REMARK    8  A    between atoms: _15  and  _17
REMARK    9  A    between atoms: _27  and  _28
REMARK   10  A    between atoms: _28  and  _29
REMARK   11  A    between atoms: _28  and  _31
REMARK   12  A    between atoms: _31  and  _32
REMARK   13  A    between atoms: _32  and  _33
REMARK   14  A    between atoms: _32  and  _34
REMARK   15  A    between atoms: _46  and  _47
REMARK   16  A    between atoms: _47  and  _48
REMARK   17  A    between atoms: _47  and  _50
REMARK   18  A    between atoms: _50  and  _51
REMARK   19  A    between atoms: _51  and  _52
REMARK   20  A    between atoms: _63  and  _64
REMARK   21  A    between atoms: _64  and  _65
REMARK   22  A    between atoms: _64  and  _67
REMARK   23  A    between atoms: _67  and  _68
REMARK   24  A    between atoms: _74  and  _75
REMARK   25  A    between atoms: _75  and  _76
REMARK   26  A    between atoms: _81  and  _82
REMARK   27  A    between atoms: _82  and  _83
REMARK   28  A    between atoms: _82  and  _85
REMARK   29  A    between atoms: _85  and  _86
REMARK   30  A    between atoms: _101  and  _102
REMARK   31  A    between atoms: _102  and  _103
REMARK   32  A    between atoms: _102  and  _105
REMARK   33  A    between atoms: _105  and  _106
REMARK   34  A    between atoms: _106  and  _107
REMARK   35  A    between atoms: _107  and  _108
REMARK                            x       y       z     vdW  Elec       q    Type
REMARK                         _______ _______ _______ _____ _____    ______ ____
ROOT
ATOM      1  CA  SER A   5       9.635  -0.652  25.256  0.00  0.00    +0.184 C 
ENDROOT
BRANCH   1   4
ATOM      2  C   GLN A   4      10.368   1.423  24.103  0.00  0.00    +0.234 C 
ATOM      3  O   GLN A   4      11.559   1.142  24.236  0.00  0.00    -0.274 OA
ATOM      4  N   SER A   5       9.368   0.650  24.634  0.00  0.00    -0.301 N 
ATOM      5  H   SER A   5       8.387   0.860  24.459  0.00  0.00    +0.150 HD
BRANCH   2   6
ATOM      6  CA  GLN A   4       9.901   2.645  23.287  0.00  0.00    +0.159 C 
BRANCH   6   8
ATOM      7  C   LEU A   3       8.227   1.439  21.893  0.00  0.00    +0.234 C 
ATOM      8  N   GLN A   4       8.529   2.357  22.870  0.00  0.00    -0.302 N 
ATOM      9  H   GLN A   4       7.795   2.920  23.291  0.00  0.00    +0.150 HD
ATOM     10  O   LEU A   3       9.089   0.772  21.321  0.00  0.00    -0.274 OA
BRANCH   7  11
ATOM     11  CA  LEU A   3       6.722   1.283  21.587  0.00  0.00    +0.159 C 
BRANCH  11  14
ATOM     12  C   VAL A   2       5.878   1.851  23.859  0.00  0.00    +0.234 C 
ATOM     13  O   VAL A   2       6.264   0.792  24.353  0.00  0.00    -0.274 OA
ATOM     14  N   LEU A   3       6.010   2.146  22.524  0.00  0.00    -0.302 N 
ATOM     15  H   LEU A   3       5.780   3.078  22.189  0.00  0.00    +0.150 HD
BRANCH  12  16
ATOM     16  CA  VAL A   2       5.231   2.959  24.716  0.00  0.00    +0.161 C 
BRANCH  16  18
ATOM     17  C   ALA A   1       5.246   2.497  27.164  0.00  0.00    +0.230 C 
ATOM     18  N   VAL A   2       5.898   2.869  26.014  0.00  0.00    -0.302 N 
ATOM     19  H   VAL A   2       6.904   3.016  26.020  0.00  0.00    +0.150 HD
ATOM     20  O   ALA A   1       4.044   2.241  27.200  0.00  0.00    -0.274 OA
BRANCH  17  21
ATOM     21  CA  ALA A   1       6.145   2.433  28.416  0.00  0.00    +0.135 C 
ATOM     22  CB  ALA A   1       6.788   3.793  28.653  0.00  0.00    +0.033 C 
BRANCH  21  23
ATOM     23  N   ALA A   1       7.184   1.404  28.231  0.00  0.00    -0.320 NA
ATOM     24  H1  ALA A   1       7.991   1.657  28.802  0.00  0.00    +0.119 HD
ATOM     25  H2  ALA A   1       6.839   0.542  28.664  0.00  0.00    +0.119 HD
ENDBRANCH  21  23
ENDBRANCH  17  21
ENDBRANCH  16  18
BRANCH  16  26
ATOM     26  CB  VAL A   2       5.429   4.349  24.062  0.00  0.00    +0.012 C 
ATOM     27  CG2 VAL A   2       5.327   5.486  25.086  0.00  0.00    +0.009 C 
ATOM     28  CG1 VAL A   2       4.415   4.608  22.941  0.00  0.00    +0.009 C 
ENDBRANCH  16  26
ENDBRANCH  12  16
ENDBRANCH  11  14
BRANCH  11  29
ATOM     29  CB  LEU A   3       6.449   1.674  20.126  0.00  0.00    +0.034 C 
BRANCH  29  30
ATOM     30  CG  LEU A   3       5.647   0.639  19.311  0.00  0.00    -0.015 C 
ATOM     31  CD2 LEU A   3       5.944   0.816  17.819  0.00  0.00    +0.007 C 
ATOM     32  CD1 LEU A   3       5.967  -0.798  19.726  0.00  0.00    +0.007 C 
ENDBRANCH  29  30
ENDBRANCH  11  29
ENDBRANCH   7  11
ENDBRANCH   6   8
BRANCH   6  33
ATOM     33  CB  GLN A   4       9.946   3.934  24.125  0.00  0.00    +0.041 C 
BRANCH  33  34
ATOM     34  CG  GLN A   4      10.434   5.157  23.351  0.00  0.00    +0.098 C 
BRANCH  34  35
ATOM     35  CD  GLN A   4      11.936   5.352  23.378  0.00  0.00    +0.211 C 
ATOM     36  OE1 GLN A   4      12.663   4.991  22.458  0.00  0.00    -0.276 OA
ATOM     37  NE2 GLN A   4      12.475   5.858  24.520  0.00  0.00    -0.329 N 
ATOM     38 HE21 GLN A   4      11.935   6.307  25.245  0.00  0.00    +0.145 HD
ATOM     39 HE22 GLN A   4      13.475   6.019  24.515  0.00  0.00    +0.145 HD
ENDBRANCH  34  35
ENDBRANCH  33  34
ENDBRANCH   6  33
ENDBRANCH   2   6
ENDBRANCH   1   4
BRANCH   1  40
ATOM     40  C   SER A   5       9.177  -1.733  24.264  0.00  0.00    +0.236 C 
ATOM     41  N   GLY A   6       8.069  -1.428  23.518  0.00  0.00    -0.305 N 
ATOM     42  H   GLY A   6       7.540  -0.574  23.670  0.00  0.00    +0.149 HD
ATOM     43  O   SER A   5       9.757  -2.817  24.173  0.00  0.00    -0.274 OA
BRANCH  41  44
ATOM     44  CA  GLY A   6       7.542  -2.359  22.538  0.00  0.00    +0.200 C 
BRANCH  44  45
ATOM     45  C   GLY A   6       6.347  -3.087  23.141  0.00  0.00    +0.231 C 
ATOM     46  O   GLY A   6       5.325  -3.311  22.497  0.00  0.00    -0.274 OA
ATOM     47  N   PHE A   7       6.510  -3.462  24.453  0.00  0.00    -0.302 N 
ATOM     48  H   PHE A   7       7.350  -3.207  24.962  0.00  0.00    +0.150 HD
BRANCH  47  49
ATOM     49  CA  PHE A   7       5.561  -4.344  25.130  0.00  0.00    +0.163 C 
BRANCH  49  50
ATOM     50  C   PHE A   7       5.911  -4.335  26.628  0.00  0.00    +0.234 C 
ATOM     51  N   ARG A   8       4.945  -4.849  27.461  0.00  0.00    -0.304 N 
ATOM     52  H   ARG A   8       4.040  -5.138  27.091  0.00  0.00    +0.149 HD
ATOM     53  O   PHE A   7       6.994  -3.936  27.059  0.00  0.00    -0.274 OA
BRANCH  51  54
ATOM     54  CA  ARG A   8       5.144  -4.946  28.901  0.00  0.00    +0.136 C 
BRANCH  54  55
ATOM     55  C   ARG A   8       5.439  -6.405  29.217  0.00  0.00    +0.245 C 
ATOM     56  O   ARG A   8       6.541  -6.924  29.046  0.00  0.00    -0.299 OA
ENDBRANCH  54  55
BRANCH  54  57
ATOM     57  CB  ARG A   8       3.903  -4.468  29.666  0.00  0.00    +0.033 C 
BRANCH  57  58
ATOM     58  CG  ARG A   8       2.760  -4.039  28.741  0.00  0.00    +0.039 C 
BRANCH  58  59
ATOM     59  CD  ARG A   8       2.607  -2.517  28.729  0.00  0.00    +0.196 C 
BRANCH  59  60
ATOM     60  NE  ARG A   8       3.100  -1.945  27.466  0.00  0.00    -0.279 N 
ATOM     61  HE  ARG A   8       2.539  -2.055  26.630  0.00  0.00    +0.258 HD
ATOM     62  CZ  ARG A   8       4.247  -1.254  27.347  0.00  0.00    +0.341 C 
ATOM     63  NH2 ARG A   8       4.597  -0.764  26.154  0.00  0.00    -0.292 N 
ATOM     64 HH21 ARG A   8       4.023  -0.894  25.331  0.00  0.00    +0.255 HD
ATOM     65 HH22 ARG A   8       5.453  -0.239  26.032  0.00  0.00    +0.255 HD
ATOM     66  NH1 ARG A   8       5.055  -1.041  28.387  0.00  0.00    -0.292 N 
ATOM     67 HH11 ARG A   8       4.833  -1.390  29.311  0.00  0.00    +0.255 HD
ATOM     68 HH12 ARG A   8       5.916  -0.518  28.294  0.00  0.00    +0.255 HD
ENDBRANCH  59  60
ENDBRANCH  58  59
ENDBRANCH  57  58
ENDBRANCH  54  57
ENDBRANCH  51  54
ENDBRANCH  49  50
BRANCH  49  69
ATOM     69  CB  PHE A   7       5.639  -5.792  24.608  0.00  0.00    +0.067 C 
BRANCH  69  70
ATOM     70  CG  PHE A   7       4.294  -6.422  24.338  0.00  0.00    -0.045 A 
ATOM     71  CD2 PHE A   7       3.518  -6.001  23.248  0.00  0.00    +0.004 A 
ATOM     72  CE2 PHE A   7       2.258  -6.555  23.018  0.00  0.00    +0.000 A 
ATOM     73  CZ  PHE A   7       1.763  -7.540  23.871  0.00  0.00    +0.000 A 
ATOM     74  CE1 PHE A   7       2.527  -7.968  24.956  0.00  0.00    +0.000 A 
ATOM     75  CD1 PHE A   7       3.785  -7.411  25.191  0.00  0.00    +0.004 A 
ENDBRANCH  69  70
ENDBRANCH  49  69
ENDBRANCH  47  49
ENDBRANCH  44  45
ENDBRANCH  41  44
ENDBRANCH   1  40
BRANCH   1  76
ATOM     76  CB  SER A   5       8.941  -0.797  26.615  0.00  0.00    +0.187 C 
BRANCH  76  77
ATOM     77  OG  SER A   5       7.549  -1.082  26.470  0.00  0.00    -0.393 OA
ATOM     78  H   SER A   5       7.069  -0.341  26.882  0.00  0.00    +0.209 HD
ENDBRANCH  76  77
ENDBRANCH   1  76
TORSDOF 30
ENDMDL
MODEL 7
REMARK VINA RESULT:      -5.0      2.520      8.114
REMARK  Name = AVLQSGFR-mmff94.pdb
REMARK  35 active torsions:
REMARK  status: ('A' for Active; 'I' for Inactive)
REMARK    1  A    between atoms: _1  and  _2
REMARK    2  A    between atoms: _2  and  _3
REMARK    3  A    between atoms: _2  and  _5
REMARK    4  A    between atoms: _11  and  _12
REMARK    5  A    between atoms: _12  and  _13
REMARK    6  A    between atoms: _12  and  _15
REMARK    7  A    between atoms: _15  and  _16
REMARK    8  A    between atoms: _15  and  _17
REMARK    9  A    between atoms: _27  and  _28
REMARK   10  A    between atoms: _28  and  _29
REMARK   11  A    between atoms: _28  and  _31
REMARK   12  A    between atoms: _31  and  _32
REMARK   13  A    between atoms: _32  and  _33
REMARK   14  A    between atoms: _32  and  _34
REMARK   15  A    between atoms: _46  and  _47
REMARK   16  A    between atoms: _47  and  _48
REMARK   17  A    between atoms: _47  and  _50
REMARK   18  A    between atoms: _50  and  _51
REMARK   19  A    between atoms: _51  and  _52
REMARK   20  A    between atoms: _63  and  _64
REMARK   21  A    between atoms: _64  and  _65
REMARK   22  A    between atoms: _64  and  _67
REMARK   23  A    between atoms: _67  and  _68
REMARK   24  A    between atoms: _74  and  _75
REMARK   25  A    between atoms: _75  and  _76
REMARK   26  A    between atoms: _81  and  _82
REMARK   27  A    between atoms: _82  and  _83
REMARK   28  A    between atoms: _82  and  _85
REMARK   29  A    between atoms: _85  and  _86
REMARK   30  A    between atoms: _101  and  _102
REMARK   31  A    between atoms: _102  and  _103
REMARK   32  A    between atoms: _102  and  _105
REMARK   33  A    between atoms: _105  and  _106
REMARK   34  A    between atoms: _106  and  _107
REMARK   35  A    between atoms: _107  and  _108
REMARK                            x       y       z     vdW  Elec       q    Type
REMARK                         _______ _______ _______ _____ _____    ______ ____
ROOT
ATOM      1  CA  SER A   5       6.997  -1.744  21.983  0.00  0.00    +0.184 C 
ENDROOT
BRANCH   1   4
ATOM      2  C   GLN A   4       7.429  -1.025  24.321  0.00  0.00    +0.234 C 
ATOM      3  O   GLN A   4       8.646  -1.162  24.196  0.00  0.00    -0.274 OA
ATOM      4  N   SER A   5       6.548  -1.358  23.325  0.00  0.00    -0.301 N 
ATOM      5  H   SER A   5       5.550  -1.178  23.419  0.00  0.00    +0.150 HD
BRANCH   2   6
ATOM      6  CA  GLN A   4       6.799  -0.425  25.593  0.00  0.00    +0.159 C 
BRANCH   6   8
ATOM      7  C   LEU A   3       4.662  -1.405  26.417  0.00  0.00    +0.234 C 
ATOM      8  N   GLN A   4       6.017  -1.498  26.206  0.00  0.00    -0.302 N 
ATOM      9  H   GLN A   4       6.535  -2.308  26.539  0.00  0.00    +0.150 HD
ATOM     10  O   LEU A   3       4.006  -0.421  26.076  0.00  0.00    -0.274 OA
BRANCH   7  11
ATOM     11  CA  LEU A   3       4.019  -2.639  27.084  0.00  0.00    +0.159 C 
BRANCH  11  14
ATOM     12  C   VAL A   2       4.208  -4.383  25.318  0.00  0.00    +0.234 C 
ATOM     13  O   VAL A   2       3.195  -4.007  24.728  0.00  0.00    -0.274 OA
ATOM     14  N   LEU A   3       4.646  -3.815  26.489  0.00  0.00    -0.302 N 
ATOM     15  H   LEU A   3       5.548  -4.085  26.874  0.00  0.00    +0.150 HD
BRANCH  12  16
ATOM     16  CA  VAL A   2       5.094  -5.520  24.768  0.00  0.00    +0.161 C 
BRANCH  16  18
ATOM     17  C   ALA A   1       7.521  -5.014  24.506  0.00  0.00    +0.230 C 
ATOM     18  N   VAL A   2       6.428  -5.250  25.304  0.00  0.00    -0.302 N 
ATOM     19  H   VAL A   2       6.503  -5.160  26.314  0.00  0.00    +0.150 HD
ATOM     20  O   ALA A   1       7.471  -5.041  23.278  0.00  0.00    -0.274 OA
BRANCH  17  21
ATOM     21  CA  ALA A   1       8.823  -4.717  25.276  0.00  0.00    +0.135 C 
ATOM     22  CB  ALA A   1       8.495  -3.987  26.572  0.00  0.00    +0.033 C 
BRANCH  21  23
ATOM     23  N   ALA A   1       9.719  -3.896  24.441  0.00  0.00    -0.320 NA
ATOM     24  H1  ALA A   1       9.721  -4.284  23.497  0.00  0.00    +0.119 HD
ATOM     25  H2  ALA A   1       9.274  -2.980  24.328  0.00  0.00    +0.119 HD
ENDBRANCH  21  23
ENDBRANCH  17  21
ENDBRANCH  16  18
BRANCH  16  26
ATOM     26  CB  VAL A   2       4.562  -6.903  25.217  0.00  0.00    +0.012 C 
ATOM     27  CG2 VAL A   2       3.297  -7.308  24.453  0.00  0.00    +0.009 C 
ATOM     28  CG1 VAL A   2       4.260  -6.942  26.720  0.00  0.00    +0.009 C 
ENDBRANCH  16  26
ENDBRANCH  12  16
ENDBRANCH  11  14
BRANCH  11  29
ATOM     29  CB  LEU A   3       4.241  -2.578  28.604  0.00  0.00    +0.034 C 
BRANCH  29  30
ATOM     30  CG  LEU A   3       3.013  -2.135  29.426  0.00  0.00    -0.015 C 
ATOM     31  CD2 LEU A   3       3.073  -0.623  29.667  0.00  0.00    +0.007 C 
ATOM     32  CD1 LEU A   3       1.696  -2.488  28.734  0.00  0.00    +0.007 C 
ENDBRANCH  29  30
ENDBRANCH  11  29
ENDBRANCH   7  11
ENDBRANCH   6   8
BRANCH   6  33
ATOM     33  CB  GLN A   4       7.873   0.080  26.571  0.00  0.00    +0.041 C 
BRANCH  33  34
ATOM     34  CG  GLN A   4       7.479  -0.048  28.041  0.00  0.00    +0.098 C 
BRANCH  34  35
ATOM     35  CD  GLN A   4       6.808   1.182  28.615  0.00  0.00    +0.211 C 
ATOM     36  OE1 GLN A   4       5.632   1.454  28.396  0.00  0.00    -0.276 OA
ATOM     37  NE2 GLN A   4       7.593   2.047  29.314  0.00  0.00    -0.329 N 
ATOM     38 HE21 GLN A   4       8.515   1.819  29.655  0.00  0.00    +0.145 HD
ATOM     39 HE22 GLN A   4       7.128   2.848  29.724  0.00  0.00    +0.145 HD
ENDBRANCH  34  35
ENDBRANCH  33  34
ENDBRANCH   6  33
ENDBRANCH   2   6
ENDBRANCH   1   4
BRANCH   1  40
ATOM     40  C   SER A   5       7.287  -0.448  21.209  0.00  0.00    +0.236 C 
ATOM     41  N   GLY A   6       6.414   0.586  21.427  0.00  0.00    -0.305 N 
ATOM     42  H   GLY A   6       5.585   0.473  22.002  0.00  0.00    +0.149 HD
ATOM     43  O   SER A   5       8.230  -0.362  20.419  0.00  0.00    -0.274 OA
BRANCH  41  44
ATOM     44  CA  GLY A   6       6.584   1.866  20.766  0.00  0.00    +0.200 C 
BRANCH  44  45
ATOM     45  C   GLY A   6       6.095   2.970  21.695  0.00  0.00    +0.231 C 
ATOM     46  O   GLY A   6       6.778   3.959  21.951  0.00  0.00    -0.274 OA
ATOM     47  N   PHE A   7       4.840   2.763  22.216  0.00  0.00    -0.302 N 
ATOM     48  H   PHE A   7       4.335   1.906  22.019  0.00  0.00    +0.150 HD
BRANCH  47  49
ATOM     49  CA  PHE A   7       4.127   3.804  22.955  0.00  0.00    +0.163 C 
BRANCH  49  50
ATOM     50  C   PHE A   7       4.421   3.591  24.450  0.00  0.00    +0.234 C 
ATOM     51  N   ARG A   8       5.479   4.313  24.950  0.00  0.00    -0.304 N 
ATOM     52  H   ARG A   8       6.058   4.882  24.333  0.00  0.00    +0.149 HD
ATOM     53  O   PHE A   7       3.738   2.858  25.168  0.00  0.00    -0.274 OA
BRANCH  51  54
ATOM     54  CA  ARG A   8       5.858   4.250  26.356  0.00  0.00    +0.136 C 
BRANCH  54  55
ATOM     55  C   ARG A   8       5.239   5.459  27.043  0.00  0.00    +0.245 C 
ATOM     56  O   ARG A   8       4.255   5.389  27.776  0.00  0.00    -0.299 OA
ENDBRANCH  54  55
BRANCH  54  57
ATOM     57  CB  ARG A   8       7.383   4.255  26.522  0.00  0.00    +0.033 C 
BRANCH  57  58
ATOM     58  CG  ARG A   8       8.127   4.365  25.188  0.00  0.00    +0.039 C 
BRANCH  58  59
ATOM     59  CD  ARG A   8       8.834   3.052  24.845  0.00  0.00    +0.196 C 
BRANCH  59  60
ATOM     60  NE  ARG A   8       9.092   2.952  23.400  0.00  0.00    -0.279 N 
ATOM     61  HE  ARG A   8       8.696   3.652  22.784  0.00  0.00    +0.258 HD
ATOM     62  CZ  ARG A   8       9.849   1.997  22.833  0.00  0.00    +0.341 C 
ATOM     63  NH2 ARG A   8      10.032   2.004  21.509  0.00  0.00    -0.292 N 
ATOM     64 HH21 ARG A   8       9.619   2.710  20.914  0.00  0.00    +0.255 HD
ATOM     65 HH22 ARG A   8      10.596   1.299  21.052  0.00  0.00    +0.255 HD
ATOM     66  NH1 ARG A   8      10.427   1.032  23.552  0.00  0.00    -0.292 N 
ATOM     67 HH11 ARG A   8      10.320   0.986  24.557  0.00  0.00    +0.255 HD
ATOM     68 HH12 ARG A   8      10.997   0.317  23.122  0.00  0.00    +0.255 HD
ENDBRANCH  59  60
ENDBRANCH  58  59
ENDBRANCH  57  58
ENDBRANCH  54  57
ENDBRANCH  51  54
ENDBRANCH  49  50
BRANCH  49  69
ATOM     69  CB  PHE A   7       2.605   3.736  22.731  0.00  0.00    +0.067 C 
BRANCH  69  70
ATOM     70  CG  PHE A   7       2.179   4.003  21.308  0.00  0.00    -0.045 A 
ATOM     71  CD2 PHE A   7       1.956   2.939  20.421  0.00  0.00    +0.004 A 
ATOM     72  CE2 PHE A   7       1.600   3.184  19.094  0.00  0.00    +0.000 A 
ATOM     73  CZ  PHE A   7       1.455   4.494  18.642  0.00  0.00    +0.000 A 
ATOM     74  CE1 PHE A   7       1.670   5.560  19.515  0.00  0.00    +0.000 A 
ATOM     75  CD1 PHE A   7       2.033   5.316  20.842  0.00  0.00    +0.004 A 
ENDBRANCH  69  70
ENDBRANCH  49  69
ENDBRANCH  47  49
ENDBRANCH  44  45
ENDBRANCH  41  44
ENDBRANCH   1  40
BRANCH   1  76
ATOM     76  CB  SER A   5       5.969  -2.620  21.258  0.00  0.00    +0.187 C 
BRANCH  76  77
ATOM     77  OG  SER A   5       5.465  -1.983  20.083  0.00  0.00    -0.393 OA
ATOM     78  H   SER A   5       5.252  -1.066  20.334  0.00  0.00    +0.209 HD
ENDBRANCH  76  77
ENDBRANCH   1  76
TORSDOF 30
ENDMDL
MODEL 8
REMARK VINA RESULT:      -5.0      2.239      5.725
REMARK  Name = AVLQSGFR-mmff94.pdb
REMARK  35 active torsions:
REMARK  status: ('A' for Active; 'I' for Inactive)
REMARK    1  A    between atoms: _1  and  _2
REMARK    2  A    between atoms: _2  and  _3
REMARK    3  A    between atoms: _2  and  _5
REMARK    4  A    between atoms: _11  and  _12
REMARK    5  A    between atoms: _12  and  _13
REMARK    6  A    between atoms: _12  and  _15
REMARK    7  A    between atoms: _15  and  _16
REMARK    8  A    between atoms: _15  and  _17
REMARK    9  A    between atoms: _27  and  _28
REMARK   10  A    between atoms: _28  and  _29
REMARK   11  A    between atoms: _28  and  _31
REMARK   12  A    between atoms: _31  and  _32
REMARK   13  A    between atoms: _32  and  _33
REMARK   14  A    between atoms: _32  and  _34
REMARK   15  A    between atoms: _46  and  _47
REMARK   16  A    between atoms: _47  and  _48
REMARK   17  A    between atoms: _47  and  _50
REMARK   18  A    between atoms: _50  and  _51
REMARK   19  A    between atoms: _51  and  _52
REMARK   20  A    between atoms: _63  and  _64
REMARK   21  A    between atoms: _64  and  _65
REMARK   22  A    between atoms: _64  and  _67
REMARK   23  A    between atoms: _67  and  _68
REMARK   24  A    between atoms: _74  and  _75
REMARK   25  A    between atoms: _75  and  _76
REMARK   26  A    between atoms: _81  and  _82
REMARK   27  A    between atoms: _82  and  _83
REMARK   28  A    between atoms: _82  and  _85
REMARK   29  A    between atoms: _85  and  _86
REMARK   30  A    between atoms: _101  and  _102
REMARK   31  A    between atoms: _102  and  _103
REMARK   32  A    between atoms: _102  and  _105
REMARK   33  A    between atoms: _105  and  _106
REMARK   34  A    between atoms: _106  and  _107
REMARK   35  A    between atoms: _107  and  _108
REMARK                            x       y       z     vdW  Elec       q    Type
REMARK                         _______ _______ _______ _____ _____    ______ ____
ROOT
ATOM      1  CA  SER A   5      10.344   2.919  23.474  0.00  0.00    +0.184 C 
ENDROOT
BRANCH   1   4
ATOM      2  C   GLN A   4       8.943   4.839  24.196  0.00  0.00    +0.234 C 
ATOM      3  O   GLN A   4       9.709   5.659  23.689  0.00  0.00    -0.274 OA
ATOM      4  N   SER A   5       9.211   3.495  24.208  0.00  0.00    -0.301 N 
ATOM      5  H   SER A   5       8.538   2.824  24.572  0.00  0.00    +0.150 HD
BRANCH   2   6
ATOM      6  CA  GLN A   4       7.596   5.255  24.821  0.00  0.00    +0.159 C 
BRANCH   6   8
ATOM      7  C   LEU A   3       6.153   4.641  22.886  0.00  0.00    +0.234 C 
ATOM      8  N   GLN A   4       6.577   4.428  24.176  0.00  0.00    -0.302 N 
ATOM      9  H   GLN A   4       6.135   3.715  24.752  0.00  0.00    +0.150 HD
ATOM     10  O   LEU A   3       6.625   5.525  22.172  0.00  0.00    -0.274 OA
BRANCH   7  11
ATOM     11  CA  LEU A   3       5.062   3.668  22.388  0.00  0.00    +0.159 C 
BRANCH  11  14
ATOM     12  C   VAL A   2       6.573   1.713  22.082  0.00  0.00    +0.234 C 
ATOM     13  O   VAL A   2       6.901   1.682  23.268  0.00  0.00    -0.274 OA
ATOM     14  N   LEU A   3       5.734   2.669  21.563  0.00  0.00    -0.302 N 
ATOM     15  H   LEU A   3       5.404   2.583  20.605  0.00  0.00    +0.150 HD
BRANCH  12  16
ATOM     16  CA  VAL A   2       7.062   0.652  21.075  0.00  0.00    +0.161 C 
BRANCH  16  18
ATOM     17  C   ALA A   1       7.272  -1.716  21.824  0.00  0.00    +0.230 C 
ATOM     18  N   VAL A   2       6.501  -0.611  21.557  0.00  0.00    -0.302 N 
ATOM     19  H   VAL A   2       5.507  -0.615  21.770  0.00  0.00    +0.150 HD
ATOM     20  O   ALA A   1       8.488  -1.743  21.649  0.00  0.00    -0.274 OA
BRANCH  17  21
ATOM     21  CA  ALA A   1       6.484  -2.930  22.355  0.00  0.00    +0.135 C 
ATOM     22  CB  ALA A   1       7.443  -3.911  23.018  0.00  0.00    +0.033 C 
BRANCH  21  23
ATOM     23  N   ALA A   1       5.772  -3.587  21.243  0.00  0.00    -0.320 NA
ATOM     24  H1  ALA A   1       5.900  -4.596  21.333  0.00  0.00    +0.119 HD
ATOM     25  H2  ALA A   1       4.769  -3.453  21.403  0.00  0.00    +0.119 HD
ENDBRANCH  21  23
ENDBRANCH  17  21
ENDBRANCH  16  18
BRANCH  16  26
ATOM     26  CB  VAL A   2       6.579   0.986  19.642  0.00  0.00    +0.012 C 
ATOM     27  CG2 VAL A   2       5.103   0.629  19.434  0.00  0.00    +0.009 C 
ATOM     28  CG1 VAL A   2       7.412   0.269  18.572  0.00  0.00    +0.009 C 
ENDBRANCH  16  26
ENDBRANCH  12  16
ENDBRANCH  11  14
BRANCH  11  29
ATOM     29  CB  LEU A   3       4.350   3.032  23.593  0.00  0.00    +0.034 C 
BRANCH  29  30
ATOM     30  CG  LEU A   3       2.828   3.273  23.654  0.00  0.00    -0.015 C 
ATOM     31  CD2 LEU A   3       2.542   4.567  24.422  0.00  0.00    +0.007 C 
ATOM     32  CD1 LEU A   3       2.200   3.359  22.262  0.00  0.00    +0.007 C 
ENDBRANCH  29  30
ENDBRANCH  11  29
ENDBRANCH   7  11
ENDBRANCH   6   8
BRANCH   6  33
ATOM     33  CB  GLN A   4       7.586   5.028  26.342  0.00  0.00    +0.041 C 
BRANCH  33  34
ATOM     34  CG  GLN A   4       6.908   3.727  26.768  0.00  0.00    +0.098 C 
BRANCH  34  35
ATOM     35  CD  GLN A   4       6.724   3.583  28.264  0.00  0.00    +0.211 C 
ATOM     36  OE1 GLN A   4       6.099   4.400  28.933  0.00  0.00    -0.276 OA
ATOM     37  NE2 GLN A   4       7.370   2.550  28.871  0.00  0.00    -0.329 N 
ATOM     38 HE21 GLN A   4       7.770   1.768  28.375  0.00  0.00    +0.145 HD
ATOM     39 HE22 GLN A   4       7.211   2.441  29.866  0.00  0.00    +0.145 HD
ENDBRANCH  34  35
ENDBRANCH  33  34
ENDBRANCH   6  33
ENDBRANCH   2   6
ENDBRANCH   1   4
BRANCH   1  40
ATOM     40  C   SER A   5      10.553   1.492  24.007  0.00  0.00    +0.236 C 
ATOM     41  N   GLY A   6       9.414   0.755  24.204  0.00  0.00    -0.305 N 
ATOM     42  H   GLY A   6       8.489   1.157  24.081  0.00  0.00    +0.149 HD
ATOM     43  O   SER A   5      11.676   1.056  24.268  0.00  0.00    -0.274 OA
BRANCH  41  44
ATOM     44  CA  GLY A   6       9.477  -0.609  24.693  0.00  0.00    +0.200 C 
BRANCH  44  45
ATOM     45  C   GLY A   6       8.427  -0.791  25.782  0.00  0.00    +0.231 C 
ATOM     46  O   GLY A   6       8.725  -0.856  26.973  0.00  0.00    -0.274 OA
ATOM     47  N   PHE A   7       7.136  -0.880  25.321  0.00  0.00    -0.302 N 
ATOM     48  H   PHE A   7       6.943  -0.876  24.325  0.00  0.00    +0.150 HD
BRANCH  47  49
ATOM     49  CA  PHE A   7       5.987  -0.849  26.225  0.00  0.00    +0.163 C 
BRANCH  49  50
ATOM     50  C   PHE A   7       5.207  -2.160  26.024  0.00  0.00    +0.234 C 
ATOM     51  N   ARG A   8       5.334  -3.081  27.037  0.00  0.00    -0.304 N 
ATOM     52  H   ARG A   8       5.967  -2.911  27.817  0.00  0.00    +0.149 HD
ATOM     53  O   PHE A   7       4.484  -2.364  25.047  0.00  0.00    -0.274 OA
BRANCH  51  54
ATOM     54  CA  ARG A   8       4.625  -4.353  27.012  0.00  0.00    +0.136 C 
BRANCH  54  55
ATOM     55  C   ARG A   8       4.076  -4.590  28.411  0.00  0.00    +0.245 C 
ATOM     56  O   ARG A   8       4.782  -4.624  29.417  0.00  0.00    -0.299 OA
ENDBRANCH  54  55
BRANCH  54  57
ATOM     57  CB  ARG A   8       5.556  -5.500  26.595  0.00  0.00    +0.033 C 
BRANCH  57  58
ATOM     58  CG  ARG A   8       4.867  -6.867  26.620  0.00  0.00    +0.039 C 
BRANCH  58  59
ATOM     59  CD  ARG A   8       3.821  -6.973  25.509  0.00  0.00    +0.196 C 
BRANCH  59  60
ATOM     60  NE  ARG A   8       4.460  -7.077  24.188  0.00  0.00    -0.279 N 
ATOM     61  HE  ARG A   8       4.965  -7.925  23.956  0.00  0.00    +0.258 HD
ATOM     62  CZ  ARG A   8       4.399  -6.124  23.242  0.00  0.00    +0.341 C 
ATOM     63  NH2 ARG A   8       5.005  -6.324  22.068  0.00  0.00    -0.292 N 
ATOM     64 HH21 ARG A   8       5.510  -7.177  21.863  0.00  0.00    +0.255 HD
ATOM     65 HH22 ARG A   8       4.977  -5.627  21.335  0.00  0.00    +0.255 HD
ATOM     66  NH1 ARG A   8       3.751  -4.974  23.438  0.00  0.00    -0.292 N 
ATOM     67 HH11 ARG A   8       3.275  -4.777  24.308  0.00  0.00    +0.255 HD
ATOM     68 HH12 ARG A   8       3.705  -4.261  22.722  0.00  0.00    +0.255 HD
ENDBRANCH  59  60
ENDBRANCH  58  59
ENDBRANCH  57  58
ENDBRANCH  54  57
ENDBRANCH  51  54
ENDBRANCH  49  50
BRANCH  49  69
ATOM     69  CB  PHE A   7       5.050   0.339  25.933  0.00  0.00    +0.067 C 
BRANCH  69  70
ATOM     70  CG  PHE A   7       4.436   0.955  27.167  0.00  0.00    -0.045 A 
ATOM     71  CD2 PHE A   7       4.697   0.417  28.436  0.00  0.00    +0.004 A 
ATOM     72  CE2 PHE A   7       4.100   0.961  29.574  0.00  0.00    +0.000 A 
ATOM     73  CZ  PHE A   7       3.242   2.053  29.456  0.00  0.00    +0.000 A 
ATOM     74  CE1 PHE A   7       2.978   2.599  28.201  0.00  0.00    +0.000 A 
ATOM     75  CD1 PHE A   7       3.570   2.052  27.060  0.00  0.00    +0.004 A 
ENDBRANCH  69  70
ENDBRANCH  49  69
ENDBRANCH  47  49
ENDBRANCH  44  45
ENDBRANCH  41  44
ENDBRANCH   1  40
BRANCH   1  76
ATOM     76  CB  SER A   5      11.614   3.768  23.610  0.00  0.00    +0.187 C 
BRANCH  76  77
ATOM     77  OG  SER A   5      11.914   4.468  22.401  0.00  0.00    -0.393 OA
ATOM     78  H   SER A   5      11.116   4.415  21.844  0.00  0.00    +0.209 HD
ENDBRANCH  76  77
ENDBRANCH   1  76
TORSDOF 30
ENDMDL
MODEL 9
REMARK VINA RESULT:      -5.0      2.452      7.003
REMARK  Name = AVLQSGFR-mmff94.pdb
REMARK  35 active torsions:
REMARK  status: ('A' for Active; 'I' for Inactive)
REMARK    1  A    between atoms: _1  and  _2
REMARK    2  A    between atoms: _2  and  _3
REMARK    3  A    between atoms: _2  and  _5
REMARK    4  A    between atoms: _11  and  _12
REMARK    5  A    between atoms: _12  and  _13
REMARK    6  A    between atoms: _12  and  _15
REMARK    7  A    between atoms: _15  and  _16
REMARK    8  A    between atoms: _15  and  _17
REMARK    9  A    between atoms: _27  and  _28
REMARK   10  A    between atoms: _28  and  _29
REMARK   11  A    between atoms: _28  and  _31
REMARK   12  A    between atoms: _31  and  _32
REMARK   13  A    between atoms: _32  and  _33
REMARK   14  A    between atoms: _32  and  _34
REMARK   15  A    between atoms: _46  and  _47
REMARK   16  A    between atoms: _47  and  _48
REMARK   17  A    between atoms: _47  and  _50
REMARK   18  A    between atoms: _50  and  _51
REMARK   19  A    between atoms: _51  and  _52
REMARK   20  A    between atoms: _63  and  _64
REMARK   21  A    between atoms: _64  and  _65
REMARK   22  A    between atoms: _64  and  _67
REMARK   23  A    between atoms: _67  and  _68
REMARK   24  A    between atoms: _74  and  _75
REMARK   25  A    between atoms: _75  and  _76
REMARK   26  A    between atoms: _81  and  _82
REMARK   27  A    between atoms: _82  and  _83
REMARK   28  A    between atoms: _82  and  _85
REMARK   29  A    between atoms: _85  and  _86
REMARK   30  A    between atoms: _101  and  _102
REMARK   31  A    between atoms: _102  and  _103
REMARK   32  A    between atoms: _102  and  _105
REMARK   33  A    between atoms: _105  and  _106
REMARK   34  A    between atoms: _106  and  _107
REMARK   35  A    between atoms: _107  and  _108
REMARK                            x       y       z     vdW  Elec       q    Type
REMARK                         _______ _______ _______ _____ _____    ______ ____
ROOT
ATOM      1  CA  SER A   5       5.516  -4.817  27.748  0.00  0.00    +0.184 C 
ENDROOT
BRANCH   1   4
ATOM      2  C   GLN A   4       3.415  -4.127  26.617  0.00  0.00    +0.234 C 
ATOM      3  O   GLN A   4       3.134  -3.326  27.508  0.00  0.00    -0.274 OA
ATOM      4  N   SER A   5       4.511  -4.948  26.688  0.00  0.00    -0.301 N 
ATOM      5  H   SER A   5       4.766  -5.558  25.913  0.00  0.00    +0.150 HD
BRANCH   2   6
ATOM      6  CA  GLN A   4       2.582  -4.240  25.325  0.00  0.00    +0.159 C 
BRANCH   6   8
ATOM      7  C   LEU A   3       4.460  -3.358  23.947  0.00  0.00    +0.234 C 
ATOM      8  N   GLN A   4       3.543  -4.343  24.228  0.00  0.00    -0.302 N 
ATOM      9  H   GLN A   4       3.464  -5.159  23.625  0.00  0.00    +0.150 HD
ATOM     10  O   LEU A   3       4.556  -2.332  24.620  0.00  0.00    -0.274 OA
BRANCH   7  11
ATOM     11  CA  LEU A   3       5.383  -3.649  22.744  0.00  0.00    +0.159 C 
BRANCH  11  14
ATOM     12  C   VAL A   2       5.895  -2.006  20.944  0.00  0.00    +0.234 C 
ATOM     13  O   VAL A   2       5.587  -2.783  20.040  0.00  0.00    -0.274 OA
ATOM     14  N   LEU A   3       5.878  -2.359  22.272  0.00  0.00    -0.302 N 
ATOM     15  H   LEU A   3       6.030  -1.650  22.984  0.00  0.00    +0.150 HD
BRANCH  12  16
ATOM     16  CA  VAL A   2       6.306  -0.547  20.658  0.00  0.00    +0.161 C 
BRANCH  16  18
ATOM     17  C   ALA A   1       8.115  -0.297  22.354  0.00  0.00    +0.230 C 
ATOM     18  N   VAL A   2       7.713  -0.468  21.052  0.00  0.00    -0.302 N 
ATOM     19  H   VAL A   2       8.400  -0.632  20.321  0.00  0.00    +0.150 HD
ATOM     20  O   ALA A   1       7.326  -0.163  23.287  0.00  0.00    -0.274 OA
BRANCH  17  21
ATOM     21  CA  ALA A   1       9.644  -0.275  22.553  0.00  0.00    +0.135 C 
ATOM     22  CB  ALA A   1      10.220   0.998  21.949  0.00  0.00    +0.033 C 
BRANCH  21  23
ATOM     23  N   ALA A   1      10.246  -1.459  21.913  0.00  0.00    -0.320 NA
ATOM     24  H1  ALA A   1      10.078  -2.268  22.513  0.00  0.00    +0.119 HD
ATOM     25  H2  ALA A   1       9.697  -1.662  21.071  0.00  0.00    +0.119 HD
ENDBRANCH  21  23
ENDBRANCH  17  21
ENDBRANCH  16  18
BRANCH  16  26
ATOM     26  CB  VAL A   2       6.107  -0.200  19.163  0.00  0.00    +0.012 C 
ATOM     27  CG2 VAL A   2       7.415   0.240  18.495  0.00  0.00    +0.009 C 
ATOM     28  CG1 VAL A   2       5.060   0.903  18.962  0.00  0.00    +0.009 C 
ENDBRANCH  16  26
ENDBRANCH  12  16
ENDBRANCH  11  14
BRANCH  11  29
ATOM     29  CB  LEU A   3       6.526  -4.576  23.183  0.00  0.00    +0.034 C 
BRANCH  29  30
ATOM     30  CG  LEU A   3       7.129  -5.448  22.063  0.00  0.00    -0.015 C 
ATOM     31  CD2 LEU A   3       7.954  -6.582  22.679  0.00  0.00    +0.007 C 
ATOM     32  CD1 LEU A   3       6.054  -6.040  21.150  0.00  0.00    +0.007 C 
ENDBRANCH  29  30
ENDBRANCH  11  29
ENDBRANCH   7  11
ENDBRANCH   6   8
BRANCH   6  33
ATOM     33  CB  GLN A   4       1.665  -5.474  25.350  0.00  0.00    +0.041 C 
BRANCH  33  34
ATOM     34  CG  GLN A   4       2.065  -6.562  24.355  0.00  0.00    +0.098 C 
BRANCH  34  35
ATOM     35  CD  GLN A   4       2.945  -7.647  24.939  0.00  0.00    +0.211 C 
ATOM     36  OE1 GLN A   4       4.166  -7.541  25.002  0.00  0.00    -0.276 OA
ATOM     37  NE2 GLN A   4       2.337  -8.807  25.306  0.00  0.00    -0.329 N 
ATOM     38 HE21 GLN A   4       1.340  -8.907  25.420  0.00  0.00    +0.145 HD
ATOM     39 HE22 GLN A   4       2.929  -9.513  25.729  0.00  0.00    +0.145 HD
ENDBRANCH  34  35
ENDBRANCH  33  34
ENDBRANCH   6  33
ENDBRANCH   2   6
ENDBRANCH   1   4
BRANCH   1  40
ATOM     40  C   SER A   5       6.814  -4.325  27.087  0.00  0.00    +0.236 C 
ATOM     41  N   GLY A   6       6.794  -3.036  26.620  0.00  0.00    -0.305 N 
ATOM     42  H   GLY A   6       5.949  -2.473  26.639  0.00  0.00    +0.149 HD
ATOM     43  O   SER A   5       7.796  -5.058  26.962  0.00  0.00    -0.274 OA
BRANCH  41  44
ATOM     44  CA  GLY A   6       7.959  -2.449  25.986  0.00  0.00    +0.200 C 
BRANCH  44  45
ATOM     45  C   GLY A   6       8.204  -1.069  26.585  0.00  0.00    +0.231 C 
ATOM     46  O   GLY A   6       9.194  -0.821  27.270  0.00  0.00    -0.274 OA
ATOM     47  N   PHE A   7       7.232  -0.142  26.299  0.00  0.00    -0.302 N 
ATOM     48  H   PHE A   7       6.404  -0.407  25.775  0.00  0.00    +0.150 HD
BRANCH  47  49
ATOM     49  CA  PHE A   7       7.398   1.277  26.611  0.00  0.00    +0.163 C 
BRANCH  49  50
ATOM     50  C   PHE A   7       6.558   1.574  27.865  0.00  0.00    +0.234 C 
ATOM     51  N   ARG A   8       5.250   1.927  27.626  0.00  0.00    -0.304 N 
ATOM     52  H   ARG A   8       4.910   2.049  26.673  0.00  0.00    +0.149 HD
ATOM     53  O   PHE A   7       7.003   1.468  29.009  0.00  0.00    -0.274 OA
BRANCH  51  54
ATOM     54  CA  ARG A   8       4.317   2.200  28.712  0.00  0.00    +0.136 C 
BRANCH  54  55
ATOM     55  C   ARG A   8       3.474   0.948  28.907  0.00  0.00    +0.245 C 
ATOM     56  O   ARG A   8       2.954   0.333  27.978  0.00  0.00    -0.299 OA
ENDBRANCH  54  55
BRANCH  54  57
ATOM     57  CB  ARG A   8       3.427   3.407  28.388  0.00  0.00    +0.033 C 
BRANCH  57  58
ATOM     58  CG  ARG A   8       4.197   4.560  27.738  0.00  0.00    +0.039 C 
BRANCH  58  59
ATOM     59  CD  ARG A   8       3.508   5.025  26.455  0.00  0.00    +0.196 C 
BRANCH  59  60
ATOM     60  NE  ARG A   8       4.036   4.312  25.281  0.00  0.00    -0.279 N 
ATOM     61  HE  ARG A   8       5.004   4.457  25.018  0.00  0.00    +0.258 HD
ATOM     62  CZ  ARG A   8       3.324   3.449  24.537  0.00  0.00    +0.341 C 
ATOM     63  NH2 ARG A   8       3.904   2.843  23.497  0.00  0.00    -0.292 N 
ATOM     64 HH21 ARG A   8       4.871   3.010  23.249  0.00  0.00    +0.255 HD
ATOM     65 HH22 ARG A   8       3.395   2.187  22.918  0.00  0.00    +0.255 HD
ATOM     66  NH1 ARG A   8       2.044   3.176  24.803  0.00  0.00    -0.292 N 
ATOM     67 HH11 ARG A   8       1.561   3.607  25.580  0.00  0.00    +0.255 HD
ATOM     68 HH12 ARG A   8       1.512   2.524  24.242  0.00  0.00    +0.255 HD
ENDBRANCH  59  60
ENDBRANCH  58  59
ENDBRANCH  57  58
ENDBRANCH  54  57
ENDBRANCH  51  54
ENDBRANCH  49  50
BRANCH  49  69
ATOM     69  CB  PHE A   7       6.920   2.185  25.463  0.00  0.00    +0.067 C 
BRANCH  69  70
ATOM     70  CG  PHE A   7       7.793   3.395  25.230  0.00  0.00    -0.045 A 
ATOM     71  CD2 PHE A   7       8.788   3.374  24.242  0.00  0.00    +0.004 A 
ATOM     72  CE2 PHE A   7       9.621   4.477  24.051  0.00  0.00    +0.000 A 
ATOM     73  CZ  PHE A   7       9.464   5.615  24.840  0.00  0.00    +0.000 A 
ATOM     74  CE1 PHE A   7       8.475   5.648  25.823  0.00  0.00    +0.000 A 
ATOM     75  CD1 PHE A   7       7.644   4.543  26.020  0.00  0.00    +0.004 A 
ENDBRANCH  69  70
ENDBRANCH  49  69
ENDBRANCH  47  49
ENDBRANCH  44  45
ENDBRANCH  41  44
ENDBRANCH   1  40
BRANCH   1  76
ATOM     76  CB  SER A   5       5.730  -6.131  28.509  0.00  0.00    +0.187 C 
BRANCH  76  77
ATOM     77  OG  SER A   5       5.558  -7.267  27.660  0.00  0.00    -0.393 OA
ATOM     78  H   SER A   5       6.241  -7.203  26.967  0.00  0.00    +0.209 HD
ENDBRANCH  76  77
ENDBRANCH   1  76
TORSDOF 30
ENDMDL
MODEL 10
REMARK VINA RESULT:      -5.0      2.093      8.329
REMARK  Name = AVLQSGFR-mmff94.pdb
REMARK  35 active torsions:
REMARK  status: ('A' for Active; 'I' for Inactive)
REMARK    1  A    between atoms: _1  and  _2
REMARK    2  A    between atoms: _2  and  _3
REMARK    3  A    between atoms: _2  and  _5
REMARK    4  A    between atoms: _11  and  _12
REMARK    5  A    between atoms: _12  and  _13
REMARK    6  A    between atoms: _12  and  _15
REMARK    7  A    between atoms: _15  and  _16
REMARK    8  A    between atoms: _15  and  _17
REMARK    9  A    between atoms: _27  and  _28
REMARK   10  A    between atoms: _28  and  _29
REMARK   11  A    between atoms: _28  and  _31
REMARK   12  A    between atoms: _31  and  _32
REMARK   13  A    between atoms: _32  and  _33
REMARK   14  A    between atoms: _32  and  _34
REMARK   15  A    between atoms: _46  and  _47
REMARK   16  A    between atoms: _47  and  _48
REMARK   17  A    between atoms: _47  and  _50
REMARK   18  A    between atoms: _50  and  _51
REMARK   19  A    between atoms: _51  and  _52
REMARK   20  A    between atoms: _63  and  _64
REMARK   21  A    between atoms: _64  and  _65
REMARK   22  A    between atoms: _64  and  _67
REMARK   23  A    between atoms: _67  and  _68
REMARK   24  A    between atoms: _74  and  _75
REMARK   25  A    between atoms: _75  and  _76
REMARK   26  A    between atoms: _81  and  _82
REMARK   27  A    between atoms: _82  and  _83
REMARK   28  A    between atoms: _82  and  _85
REMARK   29  A    between atoms: _85  and  _86
REMARK   30  A    between atoms: _101  and  _102
REMARK   31  A    between atoms: _102  and  _103
REMARK   32  A    between atoms: _102  and  _105
REMARK   33  A    between atoms: _105  and  _106
REMARK   34  A    between atoms: _106  and  _107
REMARK   35  A    between atoms: _107  and  _108
REMARK                            x       y       z     vdW  Elec       q    Type
REMARK                         _______ _______ _______ _____ _____    ______ ____
ROOT
ATOM      1  CA  SER A   5       4.954   0.249  28.532  0.00  0.00    +0.184 C 
ENDROOT
BRANCH   1   4
ATOM      2  C   GLN A   4       3.393  -1.635  28.103  0.00  0.00    +0.234 C 
ATOM      3  O   GLN A   4       2.521  -0.885  27.665  0.00  0.00    -0.274 OA
ATOM      4  N   SER A   5       4.573  -1.166  28.617  0.00  0.00    -0.301 N 
ATOM      5  H   SER A   5       5.311  -1.802  28.915  0.00  0.00    +0.150 HD
BRANCH   2   6
ATOM      6  CA  GLN A   4       3.245  -3.170  28.067  0.00  0.00    +0.159 C 
BRANCH   6   8
ATOM      7  C   LEU A   3       4.226  -3.326  25.783  0.00  0.00    +0.234 C 
ATOM      8  N   GLN A   4       3.184  -3.540  26.653  0.00  0.00    -0.302 N 
ATOM      9  H   GLN A   4       2.299  -3.909  26.315  0.00  0.00    +0.150 HD
ATOM     10  O   LEU A   3       5.296  -2.835  26.140  0.00  0.00    -0.274 OA
BRANCH   7  11
ATOM     11  CA  LEU A   3       3.965  -3.777  24.329  0.00  0.00    +0.159 C 
BRANCH  11  14
ATOM     12  C   VAL A   2       5.912  -3.692  22.780  0.00  0.00    +0.234 C 
ATOM     13  O   VAL A   2       5.463  -2.739  22.143  0.00  0.00    -0.274 OA
ATOM     14  N   LEU A   3       5.232  -4.288  23.814  0.00  0.00    -0.302 N 
ATOM     15  H   LEU A   3       5.693  -4.995  24.380  0.00  0.00    +0.150 HD
BRANCH  12  16
ATOM     16  CA  VAL A   2       7.305  -4.285  22.483  0.00  0.00    +0.161 C 
BRANCH  16  18
ATOM     17  C   ALA A   1       8.586  -3.585  24.503  0.00  0.00    +0.230 C 
ATOM     18  N   VAL A   2       7.894  -4.539  23.797  0.00  0.00    -0.302 N 
ATOM     19  H   VAL A   2       7.697  -5.444  24.216  0.00  0.00    +0.150 HD
ATOM     20  O   ALA A   1       8.793  -2.452  24.072  0.00  0.00    -0.274 OA
BRANCH  17  21
ATOM     21  CA  ALA A   1       9.093  -4.053  25.882  0.00  0.00    +0.135 C 
ATOM     22  CB  ALA A   1      10.016  -5.251  25.707  0.00  0.00    +0.033 C 
BRANCH  21  23
ATOM     23  N   ALA A   1       7.947  -4.414  26.737  0.00  0.00    -0.320 NA
ATOM     24  H1  ALA A   1       7.089  -4.243  26.211  0.00  0.00    +0.119 HD
ATOM     25  H2  ALA A   1       7.964  -5.431  26.854  0.00  0.00    +0.119 HD
ENDBRANCH  21  23
ENDBRANCH  17  21
ENDBRANCH  16  18
BRANCH  16  26
ATOM     26  CB  VAL A   2       7.186  -5.581  21.645  0.00  0.00    +0.012 C 
ATOM     27  CG2 VAL A   2       6.051  -5.501  20.618  0.00  0.00    +0.009 C 
ATOM     28  CG1 VAL A   2       6.965  -6.818  22.525  0.00  0.00    +0.009 C 
ENDBRANCH  16  26
ENDBRANCH  12  16
ENDBRANCH  11  14
BRANCH  11  29
ATOM     29  CB  LEU A   3       2.864  -4.849  24.312  0.00  0.00    +0.034 C 
BRANCH  29  30
ATOM     30  CG  LEU A   3       3.257  -6.179  23.637  0.00  0.00    -0.015 C 
ATOM     31  CD2 LEU A   3       3.613  -7.214  24.709  0.00  0.00    +0.007 C 
ATOM     32  CD1 LEU A   3       2.140  -6.729  22.750  0.00  0.00    +0.007 C 
ENDBRANCH  29  30
ENDBRANCH  11  29
ENDBRANCH   7  11
ENDBRANCH   6   8
BRANCH   6  33
ATOM     33  CB  GLN A   4       4.432  -3.867  28.752  0.00  0.00    +0.041 C 
BRANCH  33  34
ATOM     34  CG  GLN A   4       4.234  -5.368  28.955  0.00  0.00    +0.098 C 
BRANCH  34  35
ATOM     35  CD  GLN A   4       5.499  -6.188  28.811  0.00  0.00    +0.211 C 
ATOM     36  OE1 GLN A   4       6.610  -5.734  29.063  0.00  0.00    -0.276 OA
ATOM     37  NE2 GLN A   4       5.371  -7.438  28.287  0.00  0.00    -0.329 N 
ATOM     38 HE21 GLN A   4       4.491  -7.922  28.199  0.00  0.00    +0.145 HD
ATOM     39 HE22 GLN A   4       6.217  -7.991  28.228  0.00  0.00    +0.145 HD
ENDBRANCH  34  35
ENDBRANCH  33  34
ENDBRANCH   6  33
ENDBRANCH   2   6
ENDBRANCH   1   4
BRANCH   1  40
ATOM     40  C   SER A   5       6.148   0.342  27.568  0.00  0.00    +0.236 C 
ATOM     41  N   GLY A   6       5.860   0.149  26.241  0.00  0.00    -0.305 N 
ATOM     42  H   GLY A   6       4.931  -0.118  25.929  0.00  0.00    +0.149 HD
ATOM     43  O   SER A   5       7.294   0.547  27.973  0.00  0.00    -0.274 OA
BRANCH  41  44
ATOM     44  CA  GLY A   6       6.896   0.222  25.229  0.00  0.00    +0.200 C 
BRANCH  44  45
ATOM     45  C   GLY A   6       6.736   1.524  24.452  0.00  0.00    +0.231 C 
ATOM     46  O   GLY A   6       7.595   2.403  24.466  0.00  0.00    -0.274 OA
ATOM     47  N   PHE A   7       5.561   1.627  23.748  0.00  0.00    -0.302 N 
ATOM     48  H   PHE A   7       4.857   0.899  23.810  0.00  0.00    +0.150 HD
BRANCH  47  49
ATOM     49  CA  PHE A   7       5.326   2.703  22.787  0.00  0.00    +0.163 C 
BRANCH  49  50
ATOM     50  C   PHE A   7       6.248   2.455  21.581  0.00  0.00    +0.234 C 
ATOM     51  N   ARG A   8       5.894   1.395  20.779  0.00  0.00    -0.304 N 
ATOM     52  H   ARG A   8       5.116   0.787  21.033  0.00  0.00    +0.149 HD
ATOM     53  O   PHE A   7       7.214   3.173  21.319  0.00  0.00    -0.274 OA
BRANCH  51  54
ATOM     54  CA  ARG A   8       6.644   1.057  19.577  0.00  0.00    +0.136 C 
BRANCH  54  55
ATOM     55  C   ARG A   8       5.630   0.727  18.491  0.00  0.00    +0.245 C 
ATOM     56  O   ARG A   8       5.802  -0.153  17.651  0.00  0.00    -0.299 OA
ENDBRANCH  54  55
BRANCH  54  57
ATOM     57  CB  ARG A   8       7.580  -0.134  19.823  0.00  0.00    +0.033 C 
BRANCH  57  58
ATOM     58  CG  ARG A   8       7.922  -0.329  21.303  0.00  0.00    +0.039 C 
BRANCH  58  59
ATOM     59  CD  ARG A   8       9.427  -0.515  21.498  0.00  0.00    +0.196 C 
BRANCH  59  60
ATOM     60  NE  ARG A   8       9.892   0.170  22.714  0.00  0.00    -0.279 N 
ATOM     61  HE  ARG A   8      10.003  -0.370  23.565  0.00  0.00    +0.258 HD
ATOM     62  CZ  ARG A   8      10.210   1.474  22.773  0.00  0.00    +0.341 C 
ATOM     63  NH2 ARG A   8      10.636   1.996  23.927  0.00  0.00    -0.292 N 
ATOM     64 HH21 ARG A   8      10.731   1.437  24.765  0.00  0.00    +0.255 HD
ATOM     65 HH22 ARG A   8      10.883   2.974  24.003  0.00  0.00    +0.255 HD
ATOM     66  NH1 ARG A   8      10.111   2.274  21.709  0.00  0.00    -0.292 N 
ATOM     67 HH11 ARG A   8       9.795   1.926  20.813  0.00  0.00    +0.255 HD
ATOM     68 HH12 ARG A   8      10.354   3.255  21.756  0.00  0.00    +0.255 HD
ENDBRANCH  59  60
ENDBRANCH  58  59
ENDBRANCH  57  58
ENDBRANCH  54  57
ENDBRANCH  51  54
ENDBRANCH  49  50
BRANCH  49  69
ATOM     69  CB  PHE A   7       5.641   4.090  23.379  0.00  0.00    +0.067 C 
BRANCH  69  70
ATOM     70  CG  PHE A   7       4.629   4.573  24.390  0.00  0.00    -0.045 A 
ATOM     71  CD2 PHE A   7       3.298   4.801  24.009  0.00  0.00    +0.004 A 
ATOM     72  CE2 PHE A   7       2.369   5.284  24.933  0.00  0.00    +0.000 A 
ATOM     73  CZ  PHE A   7       2.759   5.538  26.246  0.00  0.00    +0.000 A 
ATOM     74  CE1 PHE A   7       4.078   5.311  26.636  0.00  0.00    +0.000 A 
ATOM     75  CD1 PHE A   7       5.010   4.834  25.713  0.00  0.00    +0.004 A 
ENDBRANCH  69  70
ENDBRANCH  49  69
ENDBRANCH  47  49
ENDBRANCH  44  45
ENDBRANCH  41  44
ENDBRANCH   1  40
BRANCH   1  76
ATOM     76  CB  SER A   5       5.287   0.842  29.906  0.00  0.00    +0.187 C 
BRANCH  76  77
ATOM     77  OG  SER A   5       5.723   2.198  29.805  0.00  0.00    -0.393 OA
ATOM     78  H   SER A   5       6.676   2.200  30.008  0.00  0.00    +0.209 HD
ENDBRANCH  76  77
ENDBRANCH   1  76
TORSDOF 30
ENDMDL
MODEL 11
REMARK VINA RESULT:      -4.9      2.374      8.711
REMARK  Name = AVLQSGFR-mmff94.pdb
REMARK  35 active torsions:
REMARK  status: ('A' for Active; 'I' for Inactive)
REMARK    1  A    between atoms: _1  and  _2
REMARK    2  A    between atoms: _2  and  _3
REMARK    3  A    between atoms: _2  and  _5
REMARK    4  A    between atoms: _11  and  _12
REMARK    5  A    between atoms: _12  and  _13
REMARK    6  A    between atoms: _12  and  _15
REMARK    7  A    between atoms: _15  and  _16
REMARK    8  A    between atoms: _15  and  _17
REMARK    9  A    between atoms: _27  and  _28
REMARK   10  A    between atoms: _28  and  _29
REMARK   11  A    between atoms: _28  and  _31
REMARK   12  A    between atoms: _31  and  _32
REMARK   13  A    between atoms: _32  and  _33
REMARK   14  A    between atoms: _32  and  _34
REMARK   15  A    between atoms: _46  and  _47
REMARK   16  A    between atoms: _47  and  _48
REMARK   17  A    between atoms: _47  and  _50
REMARK   18  A    between atoms: _50  and  _51
REMARK   19  A    between atoms: _51  and  _52
REMARK   20  A    between atoms: _63  and  _64
REMARK   21  A    between atoms: _64  and  _65
REMARK   22  A    between atoms: _64  and  _67
REMARK   23  A    between atoms: _67  and  _68
REMARK   24  A    between atoms: _74  and  _75
REMARK   25  A    between atoms: _75  and  _76
REMARK   26  A    between atoms: _81  and  _82
REMARK   27  A    between atoms: _82  and  _83
REMARK   28  A    between atoms: _82  and  _85
REMARK   29  A    between atoms: _85  and  _86
REMARK   30  A    between atoms: _101  and  _102
REMARK   31  A    between atoms: _102  and  _103
REMARK   32  A    between atoms: _102  and  _105
REMARK   33  A    between atoms: _105  and  _106
REMARK   34  A    between atoms: _106  and  _107
REMARK   35  A    between atoms: _107  and  _108
REMARK                            x       y       z     vdW  Elec       q    Type
REMARK                         _______ _______ _______ _____ _____    ______ ____
ROOT
ATOM      1  CA  SER A   5       6.520  -0.854  26.126  0.00  0.00    +0.184 C 
ENDROOT
BRANCH   1   4
ATOM      2  C   GLN A   4       5.285  -2.809  27.034  0.00  0.00    +0.234 C 
ATOM      3  O   GLN A   4       6.300  -3.283  27.543  0.00  0.00    -0.274 OA
ATOM      4  N   SER A   5       5.312  -1.675  26.264  0.00  0.00    -0.301 N 
ATOM      5  H   SER A   5       4.455  -1.258  25.904  0.00  0.00    +0.150 HD
BRANCH   2   6
ATOM      6  CA  GLN A   4       3.890  -3.427  27.259  0.00  0.00    +0.159 C 
BRANCH   6   8
ATOM      7  C   LEU A   3       2.617  -3.770  25.146  0.00  0.00    +0.234 C 
ATOM      8  N   GLN A   4       3.577  -4.176  26.042  0.00  0.00    -0.302 N 
ATOM      9  H   GLN A   4       4.058  -5.062  25.914  0.00  0.00    +0.150 HD
ATOM     10  O   LEU A   3       1.975  -2.730  25.289  0.00  0.00    -0.274 OA
BRANCH   7  11
ATOM     11  CA  LEU A   3       2.426  -4.700  23.928  0.00  0.00    +0.159 C 
BRANCH  11  14
ATOM     12  C   VAL A   2       4.731  -4.000  23.299  0.00  0.00    +0.234 C 
ATOM     13  O   VAL A   2       4.532  -2.818  23.578  0.00  0.00    -0.274 OA
ATOM     14  N   LEU A   3       3.756  -4.964  23.387  0.00  0.00    -0.302 N 
ATOM     15  H   LEU A   3       4.001  -5.942  23.255  0.00  0.00    +0.150 HD
BRANCH  12  16
ATOM     16  CA  VAL A   2       6.116  -4.507  22.847  0.00  0.00    +0.161 C 
BRANCH  16  18
ATOM     17  C   ALA A   1       8.067  -4.230  24.373  0.00  0.00    +0.230 C 
ATOM     18  N   VAL A   2       6.840  -4.778  24.089  0.00  0.00    -0.302 N 
ATOM     19  H   VAL A   2       6.354  -5.335  24.787  0.00  0.00    +0.150 HD
ATOM     20  O   ALA A   1       8.669  -3.494  23.593  0.00  0.00    -0.274 OA
BRANCH  17  21
ATOM     21  CA  ALA A   1       8.638  -4.621  25.751  0.00  0.00    +0.135 C 
ATOM     22  CB  ALA A   1      10.023  -5.229  25.577  0.00  0.00    +0.033 C 
BRANCH  21  23
ATOM     23  N   ALA A   1       7.737  -5.585  26.408  0.00  0.00    -0.320 NA
ATOM     24  H1  ALA A   1       7.149  -5.075  27.070  0.00  0.00    +0.119 HD
ATOM     25  H2  ALA A   1       7.076  -5.915  25.699  0.00  0.00    +0.119 HD
ENDBRANCH  21  23
ENDBRANCH  17  21
ENDBRANCH  16  18
BRANCH  16  26
ATOM     26  CB  VAL A   2       5.982  -5.776  21.970  0.00  0.00    +0.012 C 
ATOM     27  CG2 VAL A   2       6.931  -6.891  22.422  0.00  0.00    +0.009 C 
ATOM     28  CG1 VAL A   2       6.243  -5.481  20.488  0.00  0.00    +0.009 C 
ENDBRANCH  16  26
ENDBRANCH  12  16
ENDBRANCH  11  14
BRANCH  11  29
ATOM     29  CB  LEU A   3       1.721  -5.992  24.371  0.00  0.00    +0.034 C 
BRANCH  29  30
ATOM     30  CG  LEU A   3       2.439  -7.298  23.974  0.00  0.00    -0.015 C 
ATOM     31  CD2 LEU A   3       3.353  -7.752  25.118  0.00  0.00    +0.007 C 
ATOM     32  CD1 LEU A   3       1.455  -8.418  23.634  0.00  0.00    +0.007 C 
ENDBRANCH  29  30
ENDBRANCH  11  29
ENDBRANCH   7  11
ENDBRANCH   6   8
BRANCH   6  33
ATOM     33  CB  GLN A   4       3.876  -4.360  28.480  0.00  0.00    +0.041 C 
BRANCH  33  34
ATOM     34  CG  GLN A   4       3.459  -5.794  28.157  0.00  0.00    +0.098 C 
BRANCH  34  35
ATOM     35  CD  GLN A   4       4.393  -6.852  28.706  0.00  0.00    +0.211 C 
ATOM     36  OE1 GLN A   4       4.263  -7.326  29.831  0.00  0.00    -0.276 OA
ATOM     37  NE2 GLN A   4       5.461  -7.195  27.936  0.00  0.00    -0.329 N 
ATOM     38 HE21 GLN A   4       5.546  -6.962  26.958  0.00  0.00    +0.145 HD
ATOM     39 HE22 GLN A   4       6.060  -7.930  28.295  0.00  0.00    +0.145 HD
ENDBRANCH  34  35
ENDBRANCH  33  34
ENDBRANCH   6  33
ENDBRANCH   2   6
ENDBRANCH   1   4
BRANCH   1  40
ATOM     40  C   SER A   5       6.215   0.515  26.757  0.00  0.00    +0.236 C 
ATOM     41  N   GLY A   6       7.295   1.337  26.952  0.00  0.00    -0.305 N 
ATOM     42  H   GLY A   6       8.244   1.027  26.765  0.00  0.00    +0.149 HD
ATOM     43  O   SER A   5       5.073   0.834  27.093  0.00  0.00    -0.274 OA
BRANCH  41  44
ATOM     44  CA  GLY A   6       7.139   2.658  27.529  0.00  0.00    +0.200 C 
BRANCH  44  45
ATOM     45  C   GLY A   6       7.429   3.702  26.457  0.00  0.00    +0.231 C 
ATOM     46  O   GLY A   6       6.910   4.816  26.473  0.00  0.00    -0.274 OA
ATOM     47  N   PHE A   7       8.305   3.291  25.482  0.00  0.00    -0.302 N 
ATOM     48  H   PHE A   7       8.666   2.343  25.480  0.00  0.00    +0.150 HD
BRANCH  47  49
ATOM     49  CA  PHE A   7       8.858   4.218  24.496  0.00  0.00    +0.163 C 
BRANCH  49  50
ATOM     50  C   PHE A   7       7.828   4.350  23.360  0.00  0.00    +0.234 C 
ATOM     51  N   ARG A   8       6.763   3.484  23.429  0.00  0.00    -0.304 N 
ATOM     52  H   ARG A   8       6.723   2.764  24.150  0.00  0.00    +0.149 HD
ATOM     53  O   PHE A   7       7.921   5.196  22.469  0.00  0.00    -0.274 OA
BRANCH  51  54
ATOM     54  CA  ARG A   8       5.684   3.512  22.449  0.00  0.00    +0.136 C 
BRANCH  54  55
ATOM     55  C   ARG A   8       4.433   3.993  23.171  0.00  0.00    +0.245 C 
ATOM     56  O   ARG A   8       4.342   5.098  23.700  0.00  0.00    -0.299 OA
ENDBRANCH  54  55
BRANCH  54  57
ATOM     57  CB  ARG A   8       5.455   2.125  21.835  0.00  0.00    +0.033 C 
BRANCH  57  58
ATOM     58  CG  ARG A   8       5.937   2.028  20.385  0.00  0.00    +0.039 C 
BRANCH  58  59
ATOM     59  CD  ARG A   8       4.796   1.615  19.454  0.00  0.00    +0.196 C 
BRANCH  59  60
ATOM     60  NE  ARG A   8       5.229   0.566  18.518  0.00  0.00    -0.279 N 
ATOM     61  HE  ARG A   8       5.245   0.774  17.527  0.00  0.00    +0.258 HD
ATOM     62  CZ  ARG A   8       5.636  -0.660  18.892  0.00  0.00    +0.341 C 
ATOM     63  NH2 ARG A   8       6.023  -1.536  17.960  0.00  0.00    -0.292 N 
ATOM     64 HH21 ARG A   8       6.023  -1.307  16.975  0.00  0.00    +0.255 HD
ATOM     65 HH22 ARG A   8       6.335  -2.466  18.210  0.00  0.00    +0.255 HD
ATOM     66  NH1 ARG A   8       5.665  -1.035  20.173  0.00  0.00    -0.292 N 
ATOM     67 HH11 ARG A   8       5.384  -0.406  20.915  0.00  0.00    +0.255 HD
ATOM     68 HH12 ARG A   8       5.975  -1.956  20.450  0.00  0.00    +0.255 HD
ENDBRANCH  59  60
ENDBRANCH  58  59
ENDBRANCH  57  58
ENDBRANCH  54  57
ENDBRANCH  51  54
ENDBRANCH  49  50
BRANCH  49  69
ATOM     69  CB  PHE A   7      10.189   3.715  23.907  0.00  0.00    +0.067 C 
BRANCH  69  70
ATOM     70  CG  PHE A   7      10.147   2.285  23.423  0.00  0.00    -0.045 A 
ATOM     71  CD2 PHE A   7       9.656   1.981  22.145  0.00  0.00    +0.004 A 
ATOM     72  CE2 PHE A   7       9.581   0.657  21.710  0.00  0.00    +0.000 A 
ATOM     73  CZ  PHE A   7      10.003  -0.376  22.545  0.00  0.00    +0.000 A 
ATOM     74  CE1 PHE A   7      10.496  -0.085  23.817  0.00  0.00    +0.000 A 
ATOM     75  CD1 PHE A   7      10.567   1.239  24.256  0.00  0.00    +0.004 A 
ENDBRANCH  69  70
ENDBRANCH  49  69
ENDBRANCH  47  49
ENDBRANCH  44  45
ENDBRANCH  41  44
ENDBRANCH   1  40
BRANCH   1  76
ATOM     76  CB  SER A   5       6.966  -0.719  24.666  0.00  0.00    +0.187 C 
BRANCH  76  77
ATOM     77  OG  SER A   5       7.037   0.649  24.259  0.00  0.00    -0.393 OA
ATOM     78  H   SER A   5       6.119   0.947  24.122  0.00  0.00    +0.209 HD
ENDBRANCH  76  77
ENDBRANCH   1  76
TORSDOF 30
ENDMDL
MODEL 12
REMARK VINA RESULT:      -4.9      2.323      5.918
REMARK  Name = AVLQSGFR-mmff94.pdb
REMARK  35 active torsions:
REMARK  status: ('A' for Active; 'I' for Inactive)
REMARK    1  A    between atoms: _1  and  _2
REMARK    2  A    between atoms: _2  and  _3
REMARK    3  A    between atoms: _2  and  _5
REMARK    4  A    between atoms: _11  and  _12
REMARK    5  A    between atoms: _12  and  _13
REMARK    6  A    between atoms: _12  and  _15
REMARK    7  A    between atoms: _15  and  _16
REMARK    8  A    between atoms: _15  and  _17
REMARK    9  A    between atoms: _27  and  _28
REMARK   10  A    between atoms: _28  and  _29
REMARK   11  A    between atoms: _28  and  _31
REMARK   12  A    between atoms: _31  and  _32
REMARK   13  A    between atoms: _32  and  _33
REMARK   14  A    between atoms: _32  and  _34
REMARK   15  A    between atoms: _46  and  _47
REMARK   16  A    between atoms: _47  and  _48
REMARK   17  A    between atoms: _47  and  _50
REMARK   18  A    between atoms: _50  and  _51
REMARK   19  A    between atoms: _51  and  _52
REMARK   20  A    between atoms: _63  and  _64
REMARK   21  A    between atoms: _64  and  _65
REMARK   22  A    between atoms: _64  and  _67
REMARK   23  A    between atoms: _67  and  _68
REMARK   24  A    between atoms: _74  and  _75
REMARK   25  A    between atoms: _75  and  _76
REMARK   26  A    between atoms: _81  and  _82
REMARK   27  A    between atoms: _82  and  _83
REMARK   28  A    between atoms: _82  and  _85
REMARK   29  A    between atoms: _85  and  _86
REMARK   30  A    between atoms: _101  and  _102
REMARK   31  A    between atoms: _102  and  _103
REMARK   32  A    between atoms: _102  and  _105
REMARK   33  A    between atoms: _105  and  _106
REMARK   34  A    between atoms: _106  and  _107
REMARK   35  A    between atoms: _107  and  _108
REMARK                            x       y       z     vdW  Elec       q    Type
REMARK                         _______ _______ _______ _____ _____    ______ ____
ROOT
ATOM      1  CA  SER A   5      10.283   2.946  23.754  0.00  0.00    +0.184 C 
ENDROOT
BRANCH   1   4
ATOM      2  C   GLN A   4       8.793   4.862  24.285  0.00  0.00    +0.234 C 
ATOM      3  O   GLN A   4       9.406   5.618  23.531  0.00  0.00    -0.274 OA
ATOM      4  N   SER A   5       9.194   3.571  24.513  0.00  0.00    -0.301 N 
ATOM      5  H   SER A   5       8.640   2.938  25.087  0.00  0.00    +0.150 HD
BRANCH   2   6
ATOM      6  CA  GLN A   4       7.496   5.292  24.998  0.00  0.00    +0.159 C 
BRANCH   6   8
ATOM      7  C   LEU A   3       5.979   4.243  23.323  0.00  0.00    +0.234 C 
ATOM      8  N   GLN A   4       6.474   4.322  24.603  0.00  0.00    -0.302 N 
ATOM      9  H   GLN A   4       6.085   3.741  25.341  0.00  0.00    +0.150 HD
ATOM     10  O   LEU A   3       6.386   4.962  22.411  0.00  0.00    -0.274 OA
BRANCH   7  11
ATOM     11  CA  LEU A   3       4.899   3.161  23.107  0.00  0.00    +0.159 C 
BRANCH  11  14
ATOM     12  C   VAL A   2       6.462   1.226  23.014  0.00  0.00    +0.234 C 
ATOM     13  O   VAL A   2       6.882   1.411  24.156  0.00  0.00    -0.274 OA
ATOM     14  N   LEU A   3       5.547   2.053  22.411  0.00  0.00    -0.302 N 
ATOM     15  H   LEU A   3       5.147   1.793  21.513  0.00  0.00    +0.150 HD
BRANCH  12  16
ATOM     16  CA  VAL A   2       6.916   0.020  22.166  0.00  0.00    +0.161 C 
BRANCH  16  18
ATOM     17  C   ALA A   1       6.231  -0.365  19.801  0.00  0.00    +0.230 C 
ATOM     18  N   VAL A   2       6.747   0.451  20.778  0.00  0.00    -0.302 N 
ATOM     19  H   VAL A   2       6.953   1.425  20.577  0.00  0.00    +0.150 HD
ATOM     20  O   ALA A   1       5.900  -1.531  20.006  0.00  0.00    -0.274 OA
BRANCH  17  21
ATOM     21  CA  ALA A   1       6.107   0.300  18.415  0.00  0.00    +0.135 C 
ATOM     22  CB  ALA A   1       5.142   1.475  18.496  0.00  0.00    +0.033 C 
BRANCH  21  23
ATOM     23  N   ALA A   1       5.624  -0.688  17.431  0.00  0.00    -0.320 NA
ATOM     24  H1  ALA A   1       4.758  -0.334  17.022  0.00  0.00    +0.119 HD
ATOM     25  H2  ALA A   1       6.283  -0.683  16.647  0.00  0.00    +0.119 HD
ENDBRANCH  21  23
ENDBRANCH  17  21
ENDBRANCH  16  18
BRANCH  16  26
ATOM     26  CB  VAL A   2       8.386  -0.354  22.478  0.00  0.00    +0.012 C 
ATOM     27  CG2 VAL A   2       9.355   0.199  21.427  0.00  0.00    +0.009 C 
ATOM     28  CG1 VAL A   2       8.585  -1.871  22.578  0.00  0.00    +0.009 C 
ENDBRANCH  16  26
ENDBRANCH  12  16
ENDBRANCH  11  14
BRANCH  11  29
ATOM     29  CB  LEU A   3       4.324   2.728  24.464  0.00  0.00    +0.034 C 
BRANCH  29  30
ATOM     30  CG  LEU A   3       2.870   3.171  24.729  0.00  0.00    -0.015 C 
ATOM     31  CD2 LEU A   3       2.867   4.464  25.551  0.00  0.00    +0.007 C 
ATOM     32  CD1 LEU A   3       2.088   3.390  23.433  0.00  0.00    +0.007 C 
ENDBRANCH  29  30
ENDBRANCH  11  29
ENDBRANCH   7  11
ENDBRANCH   6   8
BRANCH   6  33
ATOM     33  CB  GLN A   4       7.666   5.296  26.526  0.00  0.00    +0.041 C 
BRANCH  33  34
ATOM     34  CG  GLN A   4       6.583   4.518  27.271  0.00  0.00    +0.098 C 
BRANCH  34  35
ATOM     35  CD  GLN A   4       7.040   3.920  28.586  0.00  0.00    +0.211 C 
ATOM     36  OE1 GLN A   4       7.331   4.611  29.558  0.00  0.00    -0.276 OA
ATOM     37  NE2 GLN A   4       7.216   2.572  28.626  0.00  0.00    -0.329 N 
ATOM     38 HE21 GLN A   4       6.860   1.938  27.926  0.00  0.00    +0.145 HD
ATOM     39 HE22 GLN A   4       7.486   2.178  29.519  0.00  0.00    +0.145 HD
ENDBRANCH  34  35
ENDBRANCH  33  34
ENDBRANCH   6  33
ENDBRANCH   2   6
ENDBRANCH   1   4
BRANCH   1  40
ATOM     40  C   SER A   5      10.561   1.579  24.398  0.00  0.00    +0.236 C 
ATOM     41  N   GLY A   6       9.566   1.083  25.201  0.00  0.00    -0.305 N 
ATOM     42  H   GLY A   6       8.734   1.624  25.417  0.00  0.00    +0.149 HD
ATOM     43  O   SER A   5      11.627   0.984  24.224  0.00  0.00    -0.274 OA
BRANCH  41  44
ATOM     44  CA  GLY A   6       9.701  -0.203  25.858  0.00  0.00    +0.200 C 
BRANCH  44  45
ATOM     45  C   GLY A   6       8.368  -0.571  26.500  0.00  0.00    +0.231 C 
ATOM     46  O   GLY A   6       7.793   0.179  27.285  0.00  0.00    -0.274 OA
ATOM     47  N   PHE A   7       7.877  -1.800  26.131  0.00  0.00    -0.302 N 
ATOM     48  H   PHE A   7       8.414  -2.408  25.522  0.00  0.00    +0.150 HD
BRANCH  47  49
ATOM     49  CA  PHE A   7       6.525  -2.230  26.481  0.00  0.00    +0.163 C 
BRANCH  49  50
ATOM     50  C   PHE A   7       6.342  -3.660  25.943  0.00  0.00    +0.234 C 
ATOM     51  N   ARG A   8       6.249  -3.766  24.575  0.00  0.00    -0.304 N 
ATOM     52  H   ARG A   8       6.228  -2.932  23.988  0.00  0.00    +0.149 HD
ATOM     53  O   PHE A   7       6.319  -4.651  26.674  0.00  0.00    -0.274 OA
BRANCH  51  54
ATOM     54  CA  ARG A   8       6.113  -5.056  23.911  0.00  0.00    +0.136 C 
BRANCH  54  55
ATOM     55  C   ARG A   8       7.426  -5.333  23.193  0.00  0.00    +0.245 C 
ATOM     56  O   ARG A   8       8.512  -5.383  23.767  0.00  0.00    -0.299 OA
ENDBRANCH  54  55
BRANCH  54  57
ATOM     57  CB  ARG A   8       4.944  -5.050  22.917  0.00  0.00    +0.033 C 
BRANCH  57  58
ATOM     58  CG  ARG A   8       3.813  -5.998  23.323  0.00  0.00    +0.039 C 
BRANCH  58  59
ATOM     59  CD  ARG A   8       4.228  -6.872  24.507  0.00  0.00    +0.196 C 
BRANCH  59  60
ATOM     60  NE  ARG A   8       3.336  -6.663  25.658  0.00  0.00    -0.279 N 
ATOM     61  HE  ARG A   8       2.377  -6.383  25.487  0.00  0.00    +0.258 HD
ATOM     62  CZ  ARG A   8       3.699  -6.845  26.939  0.00  0.00    +0.341 C 
ATOM     63  NH2 ARG A   8       2.806  -6.641  27.911  0.00  0.00    -0.292 N 
ATOM     64 HH21 ARG A   8       1.856  -6.353  27.716  0.00  0.00    +0.255 HD
ATOM     65 HH22 ARG A   8       3.049  -6.770  28.885  0.00  0.00    +0.255 HD
ATOM     66  NH1 ARG A   8       4.934  -7.225  27.276  0.00  0.00    -0.292 N 
ATOM     67 HH11 ARG A   8       5.645  -7.395  26.576  0.00  0.00    +0.255 HD
ATOM     68 HH12 ARG A   8       5.203  -7.364  28.241  0.00  0.00    +0.255 HD
ENDBRANCH  59  60
ENDBRANCH  58  59
ENDBRANCH  57  58
ENDBRANCH  54  57
ENDBRANCH  51  54
ENDBRANCH  49  50
BRANCH  49  69
ATOM     69  CB  PHE A   7       5.447  -1.322  25.859  0.00  0.00    +0.067 C 
BRANCH  69  70
ATOM     70  CG  PHE A   7       4.432  -0.804  26.850  0.00  0.00    -0.045 A 
ATOM     71  CD2 PHE A   7       3.662  -1.697  27.611  0.00  0.00    +0.004 A 
ATOM     72  CE2 PHE A   7       2.696  -1.222  28.499  0.00  0.00    +0.000 A 
ATOM     73  CZ  PHE A   7       2.495   0.150  28.642  0.00  0.00    +0.000 A 
ATOM     74  CE1 PHE A   7       3.257   1.046  27.894  0.00  0.00    +0.000 A 
ATOM     75  CD1 PHE A   7       4.219   0.573  27.000  0.00  0.00    +0.004 A 
ENDBRANCH  69  70
ENDBRANCH  49  69
ENDBRANCH  47  49
ENDBRANCH  44  45
ENDBRANCH  41  44
ENDBRANCH   1  40
BRANCH   1  76
ATOM     76  CB  SER A   5      11.541   3.823  23.718  0.00  0.00    +0.187 C 
BRANCH  76  77
ATOM     77  OG  SER A   5      11.770   4.365  22.416  0.00  0.00    -0.393 OA
ATOM     78  H   SER A   5      11.235   3.837  21.797  0.00  0.00    +0.209 HD
ENDBRANCH  76  77
ENDBRANCH   1  76
TORSDOF 30
ENDMDL
MODEL 13
REMARK VINA RESULT:      -4.9      1.922      3.178
REMARK  Name = AVLQSGFR-mmff94.pdb
REMARK  35 active torsions:
REMARK  status: ('A' for Active; 'I' for Inactive)
REMARK    1  A    between atoms: _1  and  _2
REMARK    2  A    between atoms: _2  and  _3
REMARK    3  A    between atoms: _2  and  _5
REMARK    4  A    between atoms: _11  and  _12
REMARK    5  A    between atoms: _12  and  _13
REMARK    6  A    between atoms: _12  and  _15
REMARK    7  A    between atoms: _15  and  _16
REMARK    8  A    between atoms: _15  and  _17
REMARK    9  A    between atoms: _27  and  _28
REMARK   10  A    between atoms: _28  and  _29
REMARK   11  A    between atoms: _28  and  _31
REMARK   12  A    between atoms: _31  and  _32
REMARK   13  A    between atoms: _32  and  _33
REMARK   14  A    between atoms: _32  and  _34
REMARK   15  A    between atoms: _46  and  _47
REMARK   16  A    between atoms: _47  and  _48
REMARK   17  A    between atoms: _47  and  _50
REMARK   18  A    between atoms: _50  and  _51
REMARK   19  A    between atoms: _51  and  _52
REMARK   20  A    between atoms: _63  and  _64
REMARK   21  A    between atoms: _64  and  _65
REMARK   22  A    between atoms: _64  and  _67
REMARK   23  A    between atoms: _67  and  _68
REMARK   24  A    between atoms: _74  and  _75
REMARK   25  A    between atoms: _75  and  _76
REMARK   26  A    between atoms: _81  and  _82
REMARK   27  A    between atoms: _82  and  _83
REMARK   28  A    between atoms: _82  and  _85
REMARK   29  A    between atoms: _85  and  _86
REMARK   30  A    between atoms: _101  and  _102
REMARK   31  A    between atoms: _102  and  _103
REMARK   32  A    between atoms: _102  and  _105
REMARK   33  A    between atoms: _105  and  _106
REMARK   34  A    between atoms: _106  and  _107
REMARK   35  A    between atoms: _107  and  _108
REMARK                            x       y       z     vdW  Elec       q    Type
REMARK                         _______ _______ _______ _____ _____    ______ ____
ROOT
ATOM      1  CA  SER A   5       5.104  -4.681  22.765  0.00  0.00    +0.184 C 
ENDROOT
BRANCH   1   4
ATOM      2  C   GLN A   4       7.254  -3.496  23.145  0.00  0.00    +0.234 C 
ATOM      3  O   GLN A   4       7.598  -3.629  21.971  0.00  0.00    -0.274 OA
ATOM      4  N   SER A   5       6.096  -4.041  23.636  0.00  0.00    -0.301 N 
ATOM      5  H   SER A   5       5.793  -3.867  24.593  0.00  0.00    +0.150 HD
BRANCH   2   6
ATOM      6  CA  GLN A   4       8.076  -2.664  24.150  0.00  0.00    +0.159 C 
BRANCH   6   8
ATOM      7  C   LEU A   3       7.420  -0.360  23.469  0.00  0.00    +0.234 C 
ATOM      8  N   GLN A   4       8.339  -1.381  23.498  0.00  0.00    -0.302 N 
ATOM      9  H   GLN A   4       9.220  -1.294  22.998  0.00  0.00    +0.150 HD
ATOM     10  O   LEU A   3       6.321  -0.442  24.018  0.00  0.00    -0.274 OA
BRANCH   7  11
ATOM     11  CA  LEU A   3       7.880   0.912  22.724  0.00  0.00    +0.159 C 
BRANCH  11  14
ATOM     12  C   VAL A   2       6.992   3.235  22.837  0.00  0.00    +0.234 C 
ATOM     13  O   VAL A   2       7.232   3.467  21.652  0.00  0.00    -0.274 OA
ATOM     14  N   LEU A   3       7.321   2.050  23.448  0.00  0.00    -0.302 N 
ATOM     15  H   LEU A   3       6.999   1.864  24.394  0.00  0.00    +0.150 HD
BRANCH  12  16
ATOM     16  CA  VAL A   2       6.269   4.259  23.737  0.00  0.00    +0.161 C 
BRANCH  16  18
ATOM     17  C   ALA A   1       4.098   3.455  24.659  0.00  0.00    +0.230 C 
ATOM     18  N   VAL A   2       5.471   3.452  24.659  0.00  0.00    -0.302 N 
ATOM     19  H   VAL A   2       5.982   2.810  25.261  0.00  0.00    +0.150 HD
ATOM     20  O   ALA A   1       3.430   4.161  23.905  0.00  0.00    -0.274 OA
BRANCH  17  21
ATOM     21  CA  ALA A   1       3.456   2.505  25.690  0.00  0.00    +0.135 C 
ATOM     22  CB  ALA A   1       3.620   3.084  27.089  0.00  0.00    +0.033 C 
BRANCH  21  23
ATOM     23  N   ALA A   1       4.094   1.179  25.610  0.00  0.00    -0.320 NA
ATOM     24  H1  ALA A   1       5.058   1.267  25.936  0.00  0.00    +0.119 HD
ATOM     25  H2  ALA A   1       3.651   0.585  26.317  0.00  0.00    +0.119 HD
ENDBRANCH  21  23
ENDBRANCH  17  21
ENDBRANCH  16  18
BRANCH  16  26
ATOM     26  CB  VAL A   2       7.288   5.152  24.486  0.00  0.00    +0.012 C 
ATOM     27  CG2 VAL A   2       8.379   5.689  23.553  0.00  0.00    +0.009 C 
ATOM     28  CG1 VAL A   2       7.959   4.410  25.648  0.00  0.00    +0.009 C 
ENDBRANCH  16  26
ENDBRANCH  12  16
ENDBRANCH  11  14
BRANCH  11  29
ATOM     29  CB  LEU A   3       9.416   0.958  22.683  0.00  0.00    +0.034 C 
BRANCH  29  30
ATOM     30  CG  LEU A   3      10.081   1.672  23.877  0.00  0.00    -0.015 C 
ATOM     31  CD2 LEU A   3      11.049   0.713  24.577  0.00  0.00    +0.007 C 
ATOM     32  CD1 LEU A   3      10.835   2.933  23.449  0.00  0.00    +0.007 C 
ENDBRANCH  29  30
ENDBRANCH  11  29
ENDBRANCH   7  11
ENDBRANCH   6   8
BRANCH   6  33
ATOM     33  CB  GLN A   4       7.311  -2.449  25.465  0.00  0.00    +0.041 C 
BRANCH  33  34
ATOM     34  CG  GLN A   4       7.814  -3.311  26.621  0.00  0.00    +0.098 C 
BRANCH  34  35
ATOM     35  CD  GLN A   4       7.322  -4.743  26.590  0.00  0.00    +0.211 C 
ATOM     36  OE1 GLN A   4       6.178  -5.039  26.258  0.00  0.00    -0.276 OA
ATOM     37  NE2 GLN A   4       8.173  -5.702  27.046  0.00  0.00    -0.329 N 
ATOM     38 HE21 GLN A   4       9.160  -5.553  27.191  0.00  0.00    +0.145 HD
ATOM     39 HE22 GLN A   4       7.848  -6.659  26.988  0.00  0.00    +0.145 HD
ENDBRANCH  34  35
ENDBRANCH  33  34
ENDBRANCH   6  33
ENDBRANCH   2   6
ENDBRANCH   1   4
BRANCH   1  40
ATOM     40  C   SER A   5       3.736  -4.537  23.451  0.00  0.00    +0.236 C 
ATOM     41  N   GLY A   6       3.707  -3.739  24.565  0.00  0.00    -0.305 N 
ATOM     42  H   GLY A   6       4.553  -3.335  24.956  0.00  0.00    +0.149 HD
ATOM     43  O   SER A   5       2.738  -5.131  23.038  0.00  0.00    -0.274 OA
BRANCH  41  44
ATOM     44  CA  GLY A   6       2.475  -3.513  25.297  0.00  0.00    +0.200 C 
BRANCH  44  45
ATOM     45  C   GLY A   6       2.813  -2.935  26.666  0.00  0.00    +0.231 C 
ATOM     46  O   GLY A   6       1.954  -2.743  27.524  0.00  0.00    -0.274 OA
ATOM     47  N   PHE A   7       4.144  -2.650  26.852  0.00  0.00    -0.302 N 
ATOM     48  H   PHE A   7       4.809  -2.774  26.096  0.00  0.00    +0.150 HD
BRANCH  47  49
ATOM     49  CA  PHE A   7       4.682  -2.287  28.162  0.00  0.00    +0.163 C 
BRANCH  49  50
ATOM     50  C   PHE A   7       4.370  -3.445  29.126  0.00  0.00    +0.234 C 
ATOM     51  N   ARG A   8       4.717  -4.696  28.674  0.00  0.00    -0.304 N 
ATOM     52  H   ARG A   8       5.084  -4.825  27.731  0.00  0.00    +0.149 HD
ATOM     53  O   PHE A   7       3.880  -3.270  30.243  0.00  0.00    -0.274 OA
BRANCH  51  54
ATOM     54  CA  ARG A   8       4.522  -5.889  29.487  0.00  0.00    +0.136 C 
BRANCH  54  55
ATOM     55  C   ARG A   8       5.898  -6.485  29.749  0.00  0.00    +0.245 C 
ATOM     56  O   ARG A   8       6.357  -7.429  29.108  0.00  0.00    -0.299 OA
ENDBRANCH  54  55
BRANCH  54  57
ATOM     57  CB  ARG A   8       3.618  -6.904  28.777  0.00  0.00    +0.033 C 
BRANCH  57  58
ATOM     58  CG  ARG A   8       3.537  -6.675  27.265  0.00  0.00    +0.039 C 
BRANCH  58  59
ATOM     59  CD  ARG A   8       2.118  -6.916  26.749  0.00  0.00    +0.196 C 
BRANCH  59  60
ATOM     60  NE  ARG A   8       2.104  -7.063  25.285  0.00  0.00    -0.279 N 
ATOM     61  HE  ARG A   8       2.156  -6.230  24.711  0.00  0.00    +0.258 HD
ATOM     62  CZ  ARG A   8       2.054  -8.244  24.645  0.00  0.00    +0.341 C 
ATOM     63  NH2 ARG A   8       2.060  -8.267  23.309  0.00  0.00    -0.292 N 
ATOM     64 HH21 ARG A   8       2.104  -7.420  22.757  0.00  0.00    +0.255 HD
ATOM     65 HH22 ARG A   8       2.023  -9.140  22.798  0.00  0.00    +0.255 HD
ATOM     66  NH1 ARG A   8       1.996  -9.403  25.304  0.00  0.00    -0.292 N 
ATOM     67 HH11 ARG A   8       1.991  -9.438  26.315  0.00  0.00    +0.255 HD
ATOM     68 HH12 ARG A   8       1.961 -10.290  24.818  0.00  0.00    +0.255 HD
ENDBRANCH  59  60
ENDBRANCH  58  59
ENDBRANCH  57  58
ENDBRANCH  54  57
ENDBRANCH  51  54
ENDBRANCH  49  50
BRANCH  49  69
ATOM     69  CB  PHE A   7       4.050  -0.995  28.713  0.00  0.00    +0.067 C 
BRANCH  69  70
ATOM     70  CG  PHE A   7       5.028   0.140  28.897  0.00  0.00    -0.045 A 
ATOM     71  CD2 PHE A   7       4.857   1.065  29.938  0.00  0.00    +0.004 A 
ATOM     72  CE2 PHE A   7       5.739   2.137  30.086  0.00  0.00    +0.000 A 
ATOM     73  CZ  PHE A   7       6.804   2.291  29.202  0.00  0.00    +0.000 A 
ATOM     74  CE1 PHE A   7       6.986   1.376  28.166  0.00  0.00    +0.000 A 
ATOM     75  CD1 PHE A   7       6.102   0.306  28.011  0.00  0.00    +0.004 A 
ENDBRANCH  69  70
ENDBRANCH  49  69
ENDBRANCH  47  49
ENDBRANCH  44  45
ENDBRANCH  41  44
ENDBRANCH   1  40
BRANCH   1  76
ATOM     76  CB  SER A   5       5.444  -6.148  22.479  0.00  0.00    +0.187 C 
BRANCH  76  77
ATOM     77  OG  SER A   5       4.884  -7.022  23.461  0.00  0.00    -0.393 OA
ATOM     78  H   SER A   5       4.361  -6.463  24.064  0.00  0.00    +0.209 HD
ENDBRANCH  76  77
ENDBRANCH   1  76
TORSDOF 30
ENDMDL
MODEL 14
REMARK VINA RESULT:      -4.9      2.385      7.625
REMARK  Name = AVLQSGFR-mmff94.pdb
REMARK  35 active torsions:
REMARK  status: ('A' for Active; 'I' for Inactive)
REMARK    1  A    between atoms: _1  and  _2
REMARK    2  A    between atoms: _2  and  _3
REMARK    3  A    between atoms: _2  and  _5
REMARK    4  A    between atoms: _11  and  _12
REMARK    5  A    between atoms: _12  and  _13
REMARK    6  A    between atoms: _12  and  _15
REMARK    7  A    between atoms: _15  and  _16
REMARK    8  A    between atoms: _15  and  _17
REMARK    9  A    between atoms: _27  and  _28
REMARK   10  A    between atoms: _28  and  _29
REMARK   11  A    between atoms: _28  and  _31
REMARK   12  A    between atoms: _31  and  _32
REMARK   13  A    between atoms: _32  and  _33
REMARK   14  A    between atoms: _32  and  _34
REMARK   15  A    between atoms: _46  and  _47
REMARK   16  A    between atoms: _47  and  _48
REMARK   17  A    between atoms: _47  and  _50
REMARK   18  A    between atoms: _50  and  _51
REMARK   19  A    between atoms: _51  and  _52
REMARK   20  A    between atoms: _63  and  _64
REMARK   21  A    between atoms: _64  and  _65
REMARK   22  A    between atoms: _64  and  _67
REMARK   23  A    between atoms: _67  and  _68
REMARK   24  A    between atoms: _74  and  _75
REMARK   25  A    between atoms: _75  and  _76
REMARK   26  A    between atoms: _81  and  _82
REMARK   27  A    between atoms: _82  and  _83
REMARK   28  A    between atoms: _82  and  _85
REMARK   29  A    between atoms: _85  and  _86
REMARK   30  A    between atoms: _101  and  _102
REMARK   31  A    between atoms: _102  and  _103
REMARK   32  A    between atoms: _102  and  _105
REMARK   33  A    between atoms: _105  and  _106
REMARK   34  A    between atoms: _106  and  _107
REMARK   35  A    between atoms: _107  and  _108
REMARK                            x       y       z     vdW  Elec       q    Type
REMARK                         _______ _______ _______ _____ _____    ______ ____
ROOT
ATOM      1  CA  SER A   5       6.939   0.906  19.289  0.00  0.00    +0.184 C 
ENDROOT
BRANCH   1   4
ATOM      2  C   GLN A   4       7.566   1.140  21.682  0.00  0.00    +0.234 C 
ATOM      3  O   GLN A   4       7.069   2.264  21.758  0.00  0.00    -0.274 OA
ATOM      4  N   SER A   5       7.617   0.440  20.504  0.00  0.00    -0.301 N 
ATOM      5  H   SER A   5       7.972  -0.514  20.471  0.00  0.00    +0.150 HD
BRANCH   2   6
ATOM      6  CA  GLN A   4       8.132   0.409  22.916  0.00  0.00    +0.159 C 
BRANCH   6   8
ATOM      7  C   LEU A   3       6.399  -0.095  24.633  0.00  0.00    +0.234 C 
ATOM      8  N   GLN A   4       7.033  -0.395  23.451  0.00  0.00    -0.302 N 
ATOM      9  H   GLN A   4       6.794  -1.241  22.939  0.00  0.00    +0.150 HD
ATOM     10  O   LEU A   3       6.691   0.890  25.309  0.00  0.00    -0.274 OA
BRANCH   7  11
ATOM     11  CA  LEU A   3       5.270  -1.069  25.034  0.00  0.00    +0.159 C 
BRANCH  11  14
ATOM     12  C   VAL A   2       6.766  -2.910  25.790  0.00  0.00    +0.234 C 
ATOM     13  O   VAL A   2       7.296  -2.225  26.664  0.00  0.00    -0.274 OA
ATOM     14  N   LEU A   3       5.819  -2.418  24.925  0.00  0.00    -0.302 N 
ATOM     15  H   LEU A   3       5.330  -3.052  24.299  0.00  0.00    +0.150 HD
BRANCH  12  16
ATOM     16  CA  VAL A   2       7.104  -4.405  25.611  0.00  0.00    +0.161 C 
BRANCH  16  18
ATOM     17  C   ALA A   1       5.260  -6.074  25.754  0.00  0.00    +0.230 C 
ATOM     18  N   VAL A   2       5.867  -5.015  25.125  0.00  0.00    -0.302 N 
ATOM     19  H   VAL A   2       5.419  -4.564  24.332  0.00  0.00    +0.150 HD
ATOM     20  O   ALA A   1       5.723  -6.613  26.757  0.00  0.00    -0.274 OA
BRANCH  17  21
ATOM     21  CA  ALA A   1       3.946  -6.541  25.094  0.00  0.00    +0.135 C 
ATOM     22  CB  ALA A   1       3.003  -7.080  26.161  0.00  0.00    +0.033 C 
BRANCH  21  23
ATOM     23  N   ALA A   1       4.236  -7.587  24.095  0.00  0.00    -0.320 NA
ATOM     24  H1  ALA A   1       4.067  -8.497  24.527  0.00  0.00    +0.119 HD
ATOM     25  H2  ALA A   1       3.514  -7.523  23.371  0.00  0.00    +0.119 HD
ENDBRANCH  21  23
ENDBRANCH  17  21
ENDBRANCH  16  18
BRANCH  16  26
ATOM     26  CB  VAL A   2       8.271  -4.590  24.609  0.00  0.00    +0.012 C 
ATOM     27  CG2 VAL A   2       7.822  -5.308  23.331  0.00  0.00    +0.009 C 
ATOM     28  CG1 VAL A   2       9.439  -5.370  25.225  0.00  0.00    +0.009 C 
ENDBRANCH  16  26
ENDBRANCH  12  16
ENDBRANCH  11  14
BRANCH  11  29
ATOM     29  CB  LEU A   3       4.801  -0.754  26.463  0.00  0.00    +0.034 C 
BRANCH  29  30
ATOM     30  CG  LEU A   3       3.615  -1.604  26.963  0.00  0.00    -0.015 C 
ATOM     31  CD2 LEU A   3       4.049  -2.426  28.182  0.00  0.00    +0.007 C 
ATOM     32  CD1 LEU A   3       2.405  -0.745  27.334  0.00  0.00    +0.007 C 
ENDBRANCH  29  30
ENDBRANCH  11  29
ENDBRANCH   7  11
ENDBRANCH   6   8
BRANCH   6  33
ATOM     33  CB  GLN A   4       9.321  -0.491  22.543  0.00  0.00    +0.041 C 
BRANCH  33  34
ATOM     34  CG  GLN A   4      10.045  -1.088  23.748  0.00  0.00    +0.098 C 
BRANCH  34  35
ATOM     35  CD  GLN A   4      10.335  -0.096  24.855  0.00  0.00    +0.211 C 
ATOM     36  OE1 GLN A   4       9.734  -0.109  25.925  0.00  0.00    -0.276 OA
ATOM     37  NE2 GLN A   4      11.229   0.892  24.583  0.00  0.00    -0.329 N 
ATOM     38 HE21 GLN A   4      11.859   0.878  23.795  0.00  0.00    +0.145 HD
ATOM     39 HE22 GLN A   4      11.443   1.529  25.341  0.00  0.00    +0.145 HD
ENDBRANCH  34  35
ENDBRANCH  33  34
ENDBRANCH   6  33
ENDBRANCH   2   6
ENDBRANCH   1   4
BRANCH   1  40
ATOM     40  C   SER A   5       5.428   0.872  19.569  0.00  0.00    +0.236 C 
ATOM     41  N   GLY A   6       4.800   2.090  19.608  0.00  0.00    -0.305 N 
ATOM     42  H   GLY A   6       5.318   2.961  19.536  0.00  0.00    +0.149 HD
ATOM     43  O   SER A   5       4.831  -0.187  19.775  0.00  0.00    -0.274 OA
BRANCH  41  44
ATOM     44  CA  GLY A   6       3.374   2.193  19.853  0.00  0.00    +0.200 C 
BRANCH  44  45
ATOM     45  C   GLY A   6       3.149   3.006  21.122  0.00  0.00    +0.231 C 
ATOM     46  O   GLY A   6       2.036   3.415  21.447  0.00  0.00    -0.274 OA
ATOM     47  N   PHE A   7       4.284   3.240  21.859  0.00  0.00    -0.302 N 
ATOM     48  H   PHE A   7       5.190   2.929  21.524  0.00  0.00    +0.150 HD
BRANCH  47  49
ATOM     49  CA  PHE A   7       4.231   3.819  23.200  0.00  0.00    +0.163 C 
BRANCH  49  50
ATOM     50  C   PHE A   7       5.558   4.564  23.434  0.00  0.00    +0.234 C 
ATOM     51  N   ARG A   8       6.388   4.004  24.377  0.00  0.00    -0.304 N 
ATOM     52  H   ARG A   8       6.087   3.196  24.921  0.00  0.00    +0.149 HD
ATOM     53  O   PHE A   7       5.881   5.568  22.798  0.00  0.00    -0.274 OA
BRANCH  51  54
ATOM     54  CA  ARG A   8       7.695   4.569  24.682  0.00  0.00    +0.136 C 
BRANCH  54  55
ATOM     55  C   ARG A   8       8.719   3.456  24.510  0.00  0.00    +0.245 C 
ATOM     56  O   ARG A   8       9.658   3.519  23.720  0.00  0.00    -0.299 OA
ENDBRANCH  54  55
BRANCH  54  57
ATOM     57  CB  ARG A   8       7.739   5.128  26.110  0.00  0.00    +0.033 C 
BRANCH  57  58
ATOM     58  CG  ARG A   8       6.431   4.911  26.876  0.00  0.00    +0.039 C 
BRANCH  58  59
ATOM     59  CD  ARG A   8       6.663   4.066  28.129  0.00  0.00    +0.196 C 
BRANCH  59  60
ATOM     60  NE  ARG A   8       7.267   2.768  27.788  0.00  0.00    -0.279 N 
ATOM     61  HE  ARG A   8       7.861   2.707  26.970  0.00  0.00    +0.258 HD
ATOM     62  CZ  ARG A   8       7.105   1.647  28.511  0.00  0.00    +0.341 C 
ATOM     63  NH2 ARG A   8       7.709   0.521  28.121  0.00  0.00    -0.292 N 
ATOM     64 HH21 ARG A   8       8.292   0.483  27.294  0.00  0.00    +0.255 HD
ATOM     65 HH22 ARG A   8       7.608  -0.340  28.644  0.00  0.00    +0.255 HD
ATOM     66  NH1 ARG A   8       6.352   1.619  29.613  0.00  0.00    -0.292 N 
ATOM     67 HH11 ARG A   8       5.876   2.445  29.950  0.00  0.00    +0.255 HD
ATOM     68 HH12 ARG A   8       6.235   0.773  30.156  0.00  0.00    +0.255 HD
ENDBRANCH  59  60
ENDBRANCH  58  59
ENDBRANCH  57  58
ENDBRANCH  54  57
ENDBRANCH  51  54
ENDBRANCH  49  50
BRANCH  49  69
ATOM     69  CB  PHE A   7       4.064   2.744  24.291  0.00  0.00    +0.067 C 
BRANCH  69  70
ATOM     70  CG  PHE A   7       3.344   3.228  25.527  0.00  0.00    -0.045 A 
ATOM     71  CD2 PHE A   7       3.565   2.609  26.767  0.00  0.00    +0.004 A 
ATOM     72  CE2 PHE A   7       2.872   3.030  27.903  0.00  0.00    +0.000 A 
ATOM     73  CZ  PHE A   7       1.957   4.077  27.813  0.00  0.00    +0.000 A 
ATOM     74  CE1 PHE A   7       1.732   4.701  26.588  0.00  0.00    +0.000 A 
ATOM     75  CD1 PHE A   7       2.420   4.278  25.448  0.00  0.00    +0.004 A 
ENDBRANCH  69  70
ENDBRANCH  49  69
ENDBRANCH  47  49
ENDBRANCH  44  45
ENDBRANCH  41  44
ENDBRANCH   1  40
BRANCH   1  76
ATOM     76  CB  SER A   5       7.308   0.064  18.062  0.00  0.00    +0.187 C 
BRANCH  76  77
ATOM     77  OG  SER A   5       6.168  -0.597  17.512  0.00  0.00    -0.393 OA
ATOM     78  H   SER A   5       5.391  -0.060  17.754  0.00  0.00    +0.209 HD
ENDBRANCH  76  77
ENDBRANCH   1  76
TORSDOF 30
ENDMDL
MODEL 15
REMARK VINA RESULT:      -4.8      2.326      7.829
REMARK  Name = AVLQSGFR-mmff94.pdb
REMARK  35 active torsions:
REMARK  status: ('A' for Active; 'I' for Inactive)
REMARK    1  A    between atoms: _1  and  _2
REMARK    2  A    between atoms: _2  and  _3
REMARK    3  A    between atoms: _2  and  _5
REMARK    4  A    between atoms: _11  and  _12
REMARK    5  A    between atoms: _12  and  _13
REMARK    6  A    between atoms: _12  and  _15
REMARK    7  A    between atoms: _15  and  _16
REMARK    8  A    between atoms: _15  and  _17
REMARK    9  A    between atoms: _27  and  _28
REMARK   10  A    between atoms: _28  and  _29
REMARK   11  A    between atoms: _28  and  _31
REMARK   12  A    between atoms: _31  and  _32
REMARK   13  A    between atoms: _32  and  _33
REMARK   14  A    between atoms: _32  and  _34
REMARK   15  A    between atoms: _46  and  _47
REMARK   16  A    between atoms: _47  and  _48
REMARK   17  A    between atoms: _47  and  _50
REMARK   18  A    between atoms: _50  and  _51
REMARK   19  A    between atoms: _51  and  _52
REMARK   20  A    between atoms: _63  and  _64
REMARK   21  A    between atoms: _64  and  _65
REMARK   22  A    between atoms: _64  and  _67
REMARK   23  A    between atoms: _67  and  _68
REMARK   24  A    between atoms: _74  and  _75
REMARK   25  A    between atoms: _75  and  _76
REMARK   26  A    between atoms: _81  and  _82
REMARK   27  A    between atoms: _82  and  _83
REMARK   28  A    between atoms: _82  and  _85
REMARK   29  A    between atoms: _85  and  _86
REMARK   30  A    between atoms: _101  and  _102
REMARK   31  A    between atoms: _102  and  _103
REMARK   32  A    between atoms: _102  and  _105
REMARK   33  A    between atoms: _105  and  _106
REMARK   34  A    between atoms: _106  and  _107
REMARK   35  A    between atoms: _107  and  _108
REMARK                            x       y       z     vdW  Elec       q    Type
REMARK                         _______ _______ _______ _____ _____    ______ ____
ROOT
ATOM      1  CA  SER A   5       7.422  -2.223  21.906  0.00  0.00    +0.184 C 
ENDROOT
BRANCH   1   4
ATOM      2  C   GLN A   4       6.933  -1.517  24.237  0.00  0.00    +0.234 C 
ATOM      3  O   GLN A   4       5.930  -0.890  23.894  0.00  0.00    -0.274 OA
ATOM      4  N   SER A   5       7.759  -2.129  23.331  0.00  0.00    -0.301 N 
ATOM      5  H   SER A   5       8.547  -2.699  23.634  0.00  0.00    +0.150 HD
BRANCH   2   6
ATOM      6  CA  GLN A   4       7.316  -1.702  25.718  0.00  0.00    +0.159 C 
BRANCH   6   8
ATOM      7  C   LEU A   3       5.634  -0.906  27.374  0.00  0.00    +0.234 C 
ATOM      8  N   GLN A   4       6.056  -1.832  26.451  0.00  0.00    -0.302 N 
ATOM      9  H   GLN A   4       5.524  -2.685  26.298  0.00  0.00    +0.150 HD
ATOM     10  O   LEU A   3       6.272   0.115  27.627  0.00  0.00    -0.274 OA
BRANCH   7  11
ATOM     11  CA  LEU A   3       4.282  -1.225  28.048  0.00  0.00    +0.159 C 
BRANCH  11  14
ATOM     12  C   VAL A   2       2.973  -3.334  28.250  0.00  0.00    +0.234 C 
ATOM     13  O   VAL A   2       1.909  -2.746  28.440  0.00  0.00    -0.274 OA
ATOM     14  N   LEU A   3       4.173  -2.680  28.105  0.00  0.00    -0.302 N 
ATOM     15  H   LEU A   3       5.002  -3.202  27.836  0.00  0.00    +0.150 HD
BRANCH  12  16
ATOM     16  CA  VAL A   2       3.045  -4.870  28.130  0.00  0.00    +0.161 C 
BRANCH  16  18
ATOM     17  C   ALA A   1       3.249  -5.637  25.768  0.00  0.00    +0.230 C 
ATOM     18  N   VAL A   2       3.810  -5.117  26.908  0.00  0.00    -0.302 N 
ATOM     19  H   VAL A   2       4.778  -4.805  26.907  0.00  0.00    +0.150 HD
ATOM     20  O   ALA A   1       2.067  -5.966  25.693  0.00  0.00    -0.274 OA
BRANCH  17  21
ATOM     21  CA  ALA A   1       4.226  -5.784  24.584  0.00  0.00    +0.135 C 
ATOM     22  CB  ALA A   1       3.626  -5.139  23.343  0.00  0.00    +0.033 C 
BRANCH  21  23
ATOM     23  N   ALA A   1       4.496  -7.213  24.336  0.00  0.00    -0.320 NA
ATOM     24  H1  ALA A   1       3.609  -7.717  24.373  0.00  0.00    +0.119 HD
ATOM     25  H2  ALA A   1       4.786  -7.302  23.357  0.00  0.00    +0.119 HD
ENDBRANCH  21  23
ENDBRANCH  17  21
ENDBRANCH  16  18
BRANCH  16  26
ATOM     26  CB  VAL A   2       3.729  -5.490  29.373  0.00  0.00    +0.012 C 
ATOM     27  CG2 VAL A   2       5.248  -5.290  29.354  0.00  0.00    +0.009 C 
ATOM     28  CG1 VAL A   2       3.435  -6.990  29.504  0.00  0.00    +0.009 C 
ENDBRANCH  16  26
ENDBRANCH  12  16
ENDBRANCH  11  14
BRANCH  11  29
ATOM     29  CB  LEU A   3       4.242  -0.592  29.448  0.00  0.00    +0.034 C 
BRANCH  29  30
ATOM     30  CG  LEU A   3       3.098   0.417  29.676  0.00  0.00    -0.015 C 
ATOM     31  CD2 LEU A   3       3.659   1.698  30.304  0.00  0.00    +0.007 C 
ATOM     32  CD1 LEU A   3       2.367   0.765  28.379  0.00  0.00    +0.007 C 
ENDBRANCH  29  30
ENDBRANCH  11  29
ENDBRANCH   7  11
ENDBRANCH   6   8
BRANCH   6  33
ATOM     33  CB  GLN A   4       8.186  -2.953  25.924  0.00  0.00    +0.041 C 
BRANCH  33  34
ATOM     34  CG  GLN A   4       7.588  -3.968  26.897  0.00  0.00    +0.098 C 
BRANCH  34  35
ATOM     35  CD  GLN A   4       7.697  -5.408  26.439  0.00  0.00    +0.211 C 
ATOM     36  OE1 GLN A   4       6.743  -6.179  26.458  0.00  0.00    -0.276 OA
ATOM     37  NE2 GLN A   4       8.935  -5.856  26.094  0.00  0.00    -0.329 N 
ATOM     38 HE21 GLN A   4       9.721  -5.250  25.914  0.00  0.00    +0.145 HD
ATOM     39 HE22 GLN A   4       8.991  -6.809  25.755  0.00  0.00    +0.145 HD
ENDBRANCH  34  35
ENDBRANCH  33  34
ENDBRANCH   6  33
ENDBRANCH   2   6
ENDBRANCH   1   4
BRANCH   1  40
ATOM     40  C   SER A   5       7.602  -0.821  21.302  0.00  0.00    +0.236 C 
ATOM     41  N   GLY A   6       6.464  -0.063  21.200  0.00  0.00    -0.305 N 
ATOM     42  H   GLY A   6       5.550  -0.438  21.436  0.00  0.00    +0.149 HD
ATOM     43  O   SER A   5       8.699  -0.421  20.907  0.00  0.00    -0.274 OA
BRANCH  41  44
ATOM     44  CA  GLY A   6       6.502   1.281  20.658  0.00  0.00    +0.200 C 
BRANCH  44  45
ATOM     45  C   GLY A   6       6.547   2.277  21.811  0.00  0.00    +0.231 C 
ATOM     46  O   GLY A   6       7.091   3.375  21.706  0.00  0.00    -0.274 OA
ATOM     47  N   PHE A   7       5.937   1.844  22.964  0.00  0.00    -0.302 N 
ATOM     48  H   PHE A   7       5.549   0.908  23.021  0.00  0.00    +0.150 HD
BRANCH  47  49
ATOM     49  CA  PHE A   7       5.702   2.736  24.098  0.00  0.00    +0.163 C 
BRANCH  49  50
ATOM     50  C   PHE A   7       7.073   3.093  24.696  0.00  0.00    +0.234 C 
ATOM     51  N   ARG A   8       7.490   4.385  24.480  0.00  0.00    -0.304 N 
ATOM     52  H   ARG A   8       6.944   5.017  23.895  0.00  0.00    +0.149 HD
ATOM     53  O   PHE A   7       7.741   2.297  25.359  0.00  0.00    -0.274 OA
BRANCH  51  54
ATOM     54  CA  ARG A   8       8.748   4.887  25.017  0.00  0.00    +0.136 C 
BRANCH  54  55
ATOM     55  C   ARG A   8       8.403   5.858  26.137  0.00  0.00    +0.245 C 
ATOM     56  O   ARG A   8       7.492   5.668  26.940  0.00  0.00    -0.299 OA
ENDBRANCH  54  55
BRANCH  54  57
ATOM     57  CB  ARG A   8       9.577   5.586  23.932  0.00  0.00    +0.033 C 
BRANCH  57  58
ATOM     58  CG  ARG A   8      11.079   5.315  24.061  0.00  0.00    +0.039 C 
BRANCH  58  59
ATOM     59  CD  ARG A   8      11.500   4.135  23.185  0.00  0.00    +0.196 C 
BRANCH  59  60
ATOM     60  NE  ARG A   8      10.917   2.876  23.676  0.00  0.00    -0.279 N 
ATOM     61  HE  ARG A   8      11.019   2.642  24.657  0.00  0.00    +0.258 HD
ATOM     62  CZ  ARG A   8      10.226   2.014  22.911  0.00  0.00    +0.341 C 
ATOM     63  NH2 ARG A   8       9.726   0.903  23.460  0.00  0.00    -0.292 N 
ATOM     64 HH21 ARG A   8       9.849   0.687  24.441  0.00  0.00    +0.255 HD
ATOM     65 HH22 ARG A   8       9.201   0.235  22.911  0.00  0.00    +0.255 HD
ATOM     66  NH1 ARG A   8      10.023   2.230  21.610  0.00  0.00    -0.292 N 
ATOM     67 HH11 ARG A   8      10.379   3.057  21.149  0.00  0.00    +0.255 HD
ATOM     68 HH12 ARG A   8       9.500   1.580  21.038  0.00  0.00    +0.255 HD
ENDBRANCH  59  60
ENDBRANCH  58  59
ENDBRANCH  57  58
ENDBRANCH  54  57
ENDBRANCH  51  54
ENDBRANCH  49  50
BRANCH  49  69
ATOM     69  CB  PHE A   7       4.839   2.074  25.188  0.00  0.00    +0.067 C 
BRANCH  69  70
ATOM     70  CG  PHE A   7       4.047   3.050  26.024  0.00  0.00    -0.045 A 
ATOM     71  CD2 PHE A   7       2.766   3.456  25.621  0.00  0.00    +0.004 A 
ATOM     72  CE2 PHE A   7       2.047   4.387  26.372  0.00  0.00    +0.000 A 
ATOM     73  CZ  PHE A   7       2.598   4.918  27.537  0.00  0.00    +0.000 A 
ATOM     74  CE1 PHE A   7       3.869   4.519  27.949  0.00  0.00    +0.000 A 
ATOM     75  CD1 PHE A   7       4.592   3.592  27.196  0.00  0.00    +0.004 A 
ENDBRANCH  69  70
ENDBRANCH  49  69
ENDBRANCH  47  49
ENDBRANCH  44  45
ENDBRANCH  41  44
ENDBRANCH   1  40
BRANCH   1  76
ATOM     76  CB  SER A   5       6.004  -2.760  21.680  0.00  0.00    +0.187 C 
BRANCH  76  77
ATOM     77  OG  SER A   5       5.591  -2.609  20.321  0.00  0.00    -0.393 OA
ATOM     78  H   SER A   5       5.059  -1.793  20.282  0.00  0.00    +0.209 HD
ENDBRANCH  76  77
ENDBRANCH   1  76
TORSDOF 30
ENDMDL
MODEL 16
REMARK VINA RESULT:      -4.8      2.300      6.135
REMARK  Name = AVLQSGFR-mmff94.pdb
REMARK  35 active torsions:
REMARK  status: ('A' for Active; 'I' for Inactive)
REMARK    1  A    between atoms: _1  and  _2
REMARK    2  A    between atoms: _2  and  _3
REMARK    3  A    between atoms: _2  and  _5
REMARK    4  A    between atoms: _11  and  _12
REMARK    5  A    between atoms: _12  and  _13
REMARK    6  A    between atoms: _12  and  _15
REMARK    7  A    between atoms: _15  and  _16
REMARK    8  A    between atoms: _15  and  _17
REMARK    9  A    between atoms: _27  and  _28
REMARK   10  A    between atoms: _28  and  _29
REMARK   11  A    between atoms: _28  and  _31
REMARK   12  A    between atoms: _31  and  _32
REMARK   13  A    between atoms: _32  and  _33
REMARK   14  A    between atoms: _32  and  _34
REMARK   15  A    between atoms: _46  and  _47
REMARK   16  A    between atoms: _47  and  _48
REMARK   17  A    between atoms: _47  and  _50
REMARK   18  A    between atoms: _50  and  _51
REMARK   19  A    between atoms: _51  and  _52
REMARK   20  A    between atoms: _63  and  _64
REMARK   21  A    between atoms: _64  and  _65
REMARK   22  A    between atoms: _64  and  _67
REMARK   23  A    between atoms: _67  and  _68
REMARK   24  A    between atoms: _74  and  _75
REMARK   25  A    between atoms: _75  and  _76
REMARK   26  A    between atoms: _81  and  _82
REMARK   27  A    between atoms: _82  and  _83
REMARK   28  A    between atoms: _82  and  _85
REMARK   29  A    between atoms: _85  and  _86
REMARK   30  A    between atoms: _101  and  _102
REMARK   31  A    between atoms: _102  and  _103
REMARK   32  A    between atoms: _102  and  _105
REMARK   33  A    between atoms: _105  and  _106
REMARK   34  A    between atoms: _106  and  _107
REMARK   35  A    between atoms: _107  and  _108
REMARK                            x       y       z     vdW  Elec       q    Type
REMARK                         _______ _______ _______ _____ _____    ______ ____
ROOT
ATOM      1  CA  SER A   5       8.233  -4.477  24.252  0.00  0.00    +0.184 C 
ENDROOT
BRANCH   1   4
ATOM      2  C   GLN A   4       9.520  -2.365  24.014  0.00  0.00    +0.234 C 
ATOM      3  O   GLN A   4      10.430  -2.924  23.403  0.00  0.00    -0.274 OA
ATOM      4  N   SER A   5       8.453  -3.053  24.530  0.00  0.00    -0.301 N 
ATOM      5  H   SER A   5       7.676  -2.568  24.976  0.00  0.00    +0.150 HD
BRANCH   2   6
ATOM      6  CA  GLN A   4       9.483  -0.836  24.210  0.00  0.00    +0.159 C 
BRANCH   6   8
ATOM      7  C   LEU A   3       8.894  -0.025  21.929  0.00  0.00    +0.234 C 
ATOM      8  N   GLN A   4       8.534  -0.322  23.222  0.00  0.00    -0.302 N 
ATOM      9  H   GLN A   4       7.593  -0.126  23.552  0.00  0.00    +0.150 HD
ATOM     10  O   LEU A   3      10.035  -0.200  21.503  0.00  0.00    -0.274 OA
BRANCH   7  11
ATOM     11  CA  LEU A   3       7.752   0.515  21.042  0.00  0.00    +0.159 C 
BRANCH  11  14
ATOM     12  C   VAL A   2       7.088   2.635  22.164  0.00  0.00    +0.234 C 
ATOM     13  O   VAL A   2       6.336   2.071  22.959  0.00  0.00    -0.274 OA
ATOM     14  N   LEU A   3       7.767   1.968  21.174  0.00  0.00    -0.302 N 
ATOM     15  H   LEU A   3       8.461   2.462  20.618  0.00  0.00    +0.150 HD
BRANCH  12  16
ATOM     16  CA  VAL A   2       7.353   4.154  22.234  0.00  0.00    +0.161 C 
BRANCH  16  18
ATOM     17  C   ALA A   1       5.346   5.055  23.405  0.00  0.00    +0.230 C 
ATOM     18  N   VAL A   2       6.025   4.767  22.246  0.00  0.00    -0.302 N 
ATOM     19  H   VAL A   2       5.648   5.054  21.347  0.00  0.00    +0.150 HD
ATOM     20  O   ALA A   1       5.787   4.791  24.522  0.00  0.00    -0.274 OA
BRANCH  17  21
ATOM     21  CA  ALA A   1       3.977   5.731  23.193  0.00  0.00    +0.135 C 
ATOM     22  CB  ALA A   1       2.970   5.170  24.187  0.00  0.00    +0.033 C 
BRANCH  21  23
ATOM     23  N   ALA A   1       3.514   5.496  21.812  0.00  0.00    -0.320 NA
ATOM     24  H1  ALA A   1       3.858   6.258  21.226  0.00  0.00    +0.119 HD
ATOM     25  H2  ALA A   1       4.014   4.674  21.461  0.00  0.00    +0.119 HD
ENDBRANCH  21  23
ENDBRANCH  17  21
ENDBRANCH  16  18
BRANCH  16  26
ATOM     26  CB  VAL A   2       8.166   4.515  23.501  0.00  0.00    +0.012 C 
ATOM     27  CG2 VAL A   2       8.889   5.859  23.356  0.00  0.00    +0.009 C 
ATOM     28  CG1 VAL A   2       9.200   3.437  23.848  0.00  0.00    +0.009 C 
ENDBRANCH  16  26
ENDBRANCH  12  16
ENDBRANCH  11  14
BRANCH  11  29
ATOM     29  CB  LEU A   3       7.975   0.069  19.588  0.00  0.00    +0.034 C 
BRANCH  29  30
ATOM     30  CG  LEU A   3       6.695  -0.318  18.819  0.00  0.00    -0.015 C 
ATOM     31  CD2 LEU A   3       5.786  -1.159  19.722  0.00  0.00    +0.007 C 
ATOM     32  CD1 LEU A   3       5.925   0.909  18.325  0.00  0.00    +0.007 C 
ENDBRANCH  29  30
ENDBRANCH  11  29
ENDBRANCH   7  11
ENDBRANCH   6   8
BRANCH   6  33
ATOM     33  CB  GLN A   4       9.034  -0.459  25.631  0.00  0.00    +0.041 C 
BRANCH  33  34
ATOM     34  CG  GLN A   4       7.906   0.571  25.669  0.00  0.00    +0.098 C 
BRANCH  34  35
ATOM     35  CD  GLN A   4       6.535  -0.017  25.929  0.00  0.00    +0.211 C 
ATOM     36  OE1 GLN A   4       6.257  -0.604  26.970  0.00  0.00    -0.276 OA
ATOM     37  NE2 GLN A   4       5.633   0.040  24.912  0.00  0.00    -0.329 N 
ATOM     38 HE21 GLN A   4       5.740   0.628  24.099  0.00  0.00    +0.145 HD
ATOM     39 HE22 GLN A   4       4.708  -0.324  25.108  0.00  0.00    +0.145 HD
ENDBRANCH  34  35
ENDBRANCH  33  34
ENDBRANCH   6  33
ENDBRANCH   2   6
ENDBRANCH   1   4
BRANCH   1  40
ATOM     40  C   SER A   5       6.827  -4.611  23.647  0.00  0.00    +0.236 C 
ATOM     41  N   GLY A   6       5.874  -3.766  24.156  0.00  0.00    -0.305 N 
ATOM     42  H   GLY A   6       6.071  -3.148  24.937  0.00  0.00    +0.149 HD
ATOM     43  O   SER A   5       6.571  -5.450  22.781  0.00  0.00    -0.274 OA
BRANCH  41  44
ATOM     44  CA  GLY A   6       4.511  -3.786  23.661  0.00  0.00    +0.200 C 
BRANCH  44  45
ATOM     45  C   GLY A   6       3.556  -3.701  24.846  0.00  0.00    +0.231 C 
ATOM     46  O   GLY A   6       2.579  -4.440  24.952  0.00  0.00    -0.274 OA
ATOM     47  N   PHE A   7       3.876  -2.736  25.770  0.00  0.00    -0.302 N 
ATOM     48  H   PHE A   7       4.661  -2.112  25.613  0.00  0.00    +0.150 HD
BRANCH  47  49
ATOM     49  CA  PHE A   7       3.201  -2.646  27.063  0.00  0.00    +0.163 C 
BRANCH  49  50
ATOM     50  C   PHE A   7       2.567  -1.247  27.156  0.00  0.00    +0.234 C 
ATOM     51  N   ARG A   8       3.343  -0.290  27.765  0.00  0.00    -0.304 N 
ATOM     52  H   ARG A   8       4.239  -0.535  28.185  0.00  0.00    +0.149 HD
ATOM     53  O   PHE A   7       1.459  -0.983  26.686  0.00  0.00    -0.274 OA
BRANCH  51  54
ATOM     54  CA  ARG A   8       2.899   1.092  27.894  0.00  0.00    +0.136 C 
BRANCH  54  55
ATOM     55  C   ARG A   8       3.255   1.802  26.596  0.00  0.00    +0.245 C 
ATOM     56  O   ARG A   8       4.236   2.531  26.472  0.00  0.00    -0.299 OA
ENDBRANCH  54  55
BRANCH  54  57
ATOM     57  CB  ARG A   8       3.569   1.782  29.090  0.00  0.00    +0.033 C 
BRANCH  57  58
ATOM     58  CG  ARG A   8       4.634   0.910  29.761  0.00  0.00    +0.039 C 
BRANCH  58  59
ATOM     59  CD  ARG A   8       5.962   1.659  29.878  0.00  0.00    +0.196 C 
BRANCH  59  60
ATOM     60  NE  ARG A   8       6.412   2.148  28.565  0.00  0.00    -0.279 N 
ATOM     61  HE  ARG A   8       6.427   1.502  27.784  0.00  0.00    +0.258 HD
ATOM     62  CZ  ARG A   8       6.786   3.415  28.318  0.00  0.00    +0.341 C 
ATOM     63  NH2 ARG A   8       7.166   3.759  27.084  0.00  0.00    -0.292 N 
ATOM     64 HH21 ARG A   8       7.180   3.094  26.321  0.00  0.00    +0.255 HD
ATOM     65 HH22 ARG A   8       7.453   4.704  26.866  0.00  0.00    +0.255 HD
ATOM     66  NH1 ARG A   8       6.793   4.348  29.272  0.00  0.00    -0.292 N 
ATOM     67 HH11 ARG A   8       6.512   4.138  30.220  0.00  0.00    +0.255 HD
ATOM     68 HH12 ARG A   8       7.072   5.301  29.081  0.00  0.00    +0.255 HD
ENDBRANCH  59  60
ENDBRANCH  58  59
ENDBRANCH  57  58
ENDBRANCH  54  57
ENDBRANCH  51  54
ENDBRANCH  49  50
BRANCH  49  69
ATOM     69  CB  PHE A   7       4.174  -2.832  28.242  0.00  0.00    +0.067 C 
BRANCH  69  70
ATOM     70  CG  PHE A   7       4.576  -4.267  28.488  0.00  0.00    -0.045 A 
ATOM     71  CD2 PHE A   7       5.853  -4.720  28.126  0.00  0.00    +0.004 A 
ATOM     72  CE2 PHE A   7       6.213  -6.054  28.318  0.00  0.00    +0.000 A 
ATOM     73  CZ  PHE A   7       5.304  -6.948  28.880  0.00  0.00    +0.000 A 
ATOM     74  CE1 PHE A   7       4.033  -6.508  29.247  0.00  0.00    +0.000 A 
ATOM     75  CD1 PHE A   7       3.668  -5.174  29.051  0.00  0.00    +0.004 A 
ENDBRANCH  69  70
ENDBRANCH  49  69
ENDBRANCH  47  49
ENDBRANCH  44  45
ENDBRANCH  41  44
ENDBRANCH   1  40
BRANCH   1  76
ATOM     76  CB  SER A   5       8.398  -5.344  25.505  0.00  0.00    +0.187 C 
BRANCH  76  77
ATOM     77  OG  SER A   5       9.690  -5.949  25.564  0.00  0.00    -0.393 OA
ATOM     78  H   SER A   5       9.831  -6.389  24.706  0.00  0.00    +0.209 HD
ENDBRANCH  76  77
ENDBRANCH   1  76
TORSDOF 30
ENDMDL
MODEL 17
REMARK VINA RESULT:      -4.8      2.289      5.948
REMARK  Name = AVLQSGFR-mmff94.pdb
REMARK  35 active torsions:
REMARK  status: ('A' for Active; 'I' for Inactive)
REMARK    1  A    between atoms: _1  and  _2
REMARK    2  A    between atoms: _2  and  _3
REMARK    3  A    between atoms: _2  and  _5
REMARK    4  A    between atoms: _11  and  _12
REMARK    5  A    between atoms: _12  and  _13
REMARK    6  A    between atoms: _12  and  _15
REMARK    7  A    between atoms: _15  and  _16
REMARK    8  A    between atoms: _15  and  _17
REMARK    9  A    between atoms: _27  and  _28
REMARK   10  A    between atoms: _28  and  _29
REMARK   11  A    between atoms: _28  and  _31
REMARK   12  A    between atoms: _31  and  _32
REMARK   13  A    between atoms: _32  and  _33
REMARK   14  A    between atoms: _32  and  _34
REMARK   15  A    between atoms: _46  and  _47
REMARK   16  A    between atoms: _47  and  _48
REMARK   17  A    between atoms: _47  and  _50
REMARK   18  A    between atoms: _50  and  _51
REMARK   19  A    between atoms: _51  and  _52
REMARK   20  A    between atoms: _63  and  _64
REMARK   21  A    between atoms: _64  and  _65
REMARK   22  A    between atoms: _64  and  _67
REMARK   23  A    between atoms: _67  and  _68
REMARK   24  A    between atoms: _74  and  _75
REMARK   25  A    between atoms: _75  and  _76
REMARK   26  A    between atoms: _81  and  _82
REMARK   27  A    between atoms: _82  and  _83
REMARK   28  A    between atoms: _82  and  _85
REMARK   29  A    between atoms: _85  and  _86
REMARK   30  A    between atoms: _101  and  _102
REMARK   31  A    between atoms: _102  and  _103
REMARK   32  A    between atoms: _102  and  _105
REMARK   33  A    between atoms: _105  and  _106
REMARK   34  A    between atoms: _106  and  _107
REMARK   35  A    between atoms: _107  and  _108
REMARK                            x       y       z     vdW  Elec       q    Type
REMARK                         _______ _______ _______ _____ _____    ______ ____
ROOT
ATOM      1  CA  SER A   5       8.205  -2.648  25.635  0.00  0.00    +0.184 C 
ENDROOT
BRANCH   1   4
ATOM      2  C   GLN A   4       7.163  -0.494  26.304  0.00  0.00    +0.234 C 
ATOM      3  O   GLN A   4       6.537  -0.407  25.247  0.00  0.00    -0.274 OA
ATOM      4  N   SER A   5       8.054  -1.507  26.546  0.00  0.00    -0.301 N 
ATOM      5  H   SER A   5       8.514  -1.603  27.449  0.00  0.00    +0.150 HD
BRANCH   2   6
ATOM      6  CA  GLN A   4       6.960   0.505  27.460  0.00  0.00    +0.159 C 
BRANCH   6   8
ATOM      7  C   LEU A   3       6.975   2.995  27.512  0.00  0.00    +0.234 C 
ATOM      8  N   GLN A   4       6.770   1.815  26.838  0.00  0.00    -0.302 N 
ATOM      9  H   GLN A   4       6.409   1.821  25.887  0.00  0.00    +0.150 HD
ATOM     10  O   LEU A   3       7.364   3.032  28.679  0.00  0.00    -0.274 OA
BRANCH   7  11
ATOM     11  CA  LEU A   3       6.713   4.273  26.685  0.00  0.00    +0.159 C 
BRANCH  11  14
ATOM     12  C   VAL A   2       8.115   4.803  24.698  0.00  0.00    +0.234 C 
ATOM     13  O   VAL A   2       8.534   5.857  25.177  0.00  0.00    -0.274 OA
ATOM     14  N   LEU A   3       7.194   4.006  25.333  0.00  0.00    -0.302 N 
ATOM     15  H   LEU A   3       6.968   3.092  24.949  0.00  0.00    +0.150 HD
BRANCH  12  16
ATOM     16  CA  VAL A   2       8.616   4.272  23.339  0.00  0.00    +0.161 C 
BRANCH  16  18
ATOM     17  C   ALA A   1      10.370   2.532  23.665  0.00  0.00    +0.230 C 
ATOM     18  N   VAL A   2       9.048   2.901  23.607  0.00  0.00    -0.302 N 
ATOM     19  H   VAL A   2       8.319   2.231  23.836  0.00  0.00    +0.150 HD
ATOM     20  O   ALA A   1      11.294   3.318  23.465  0.00  0.00    -0.274 OA
BRANCH  17  21
ATOM     21  CA  ALA A   1      10.605   1.044  23.995  0.00  0.00    +0.135 C 
ATOM     22  CB  ALA A   1       9.833   0.175  23.012  0.00  0.00    +0.033 C 
BRANCH  21  23
ATOM     23  N   ALA A   1      10.165   0.765  25.375  0.00  0.00    -0.320 NA
ATOM     24  H1  ALA A   1      10.319   1.604  25.936  0.00  0.00    +0.119 HD
ATOM     25  H2  ALA A   1       9.145   0.668  25.355  0.00  0.00    +0.119 HD
ENDBRANCH  21  23
ENDBRANCH  17  21
ENDBRANCH  16  18
BRANCH  16  26
ATOM     26  CB  VAL A   2       7.491   4.324  22.276  0.00  0.00    +0.012 C 
ATOM     27  CG2 VAL A   2       6.408   5.347  22.634  0.00  0.00    +0.009 C 
ATOM     28  CG1 VAL A   2       6.827   2.956  22.075  0.00  0.00    +0.009 C 
ENDBRANCH  16  26
ENDBRANCH  12  16
ENDBRANCH  11  14
BRANCH  11  29
ATOM     29  CB  LEU A   3       5.211   4.600  26.705  0.00  0.00    +0.034 C 
BRANCH  29  30
ATOM     30  CG  LEU A   3       4.502   4.495  25.340  0.00  0.00    -0.015 C 
ATOM     31  CD2 LEU A   3       3.692   3.196  25.278  0.00  0.00    +0.007 C 
ATOM     32  CD1 LEU A   3       3.575   5.684  25.078  0.00  0.00    +0.007 C 
ENDBRANCH  29  30
ENDBRANCH  11  29
ENDBRANCH   7  11
ENDBRANCH   6   8
BRANCH   6  33
ATOM     33  CB  GLN A   4       5.738   0.137  28.317  0.00  0.00    +0.041 C 
BRANCH  33  34
ATOM     34  CG  GLN A   4       4.449   0.835  27.886  0.00  0.00    +0.098 C 
BRANCH  34  35
ATOM     35  CD  GLN A   4       3.709   1.525  29.013  0.00  0.00    +0.211 C 
ATOM     36  OE1 GLN A   4       2.498   1.408  29.174  0.00  0.00    -0.276 OA
ATOM     37  NE2 GLN A   4       4.426   2.376  29.795  0.00  0.00    -0.329 N 
ATOM     38 HE21 GLN A   4       5.434   2.406  29.815  0.00  0.00    +0.145 HD
ATOM     39 HE22 GLN A   4       3.931   2.805  30.568  0.00  0.00    +0.145 HD
ENDBRANCH  34  35
ENDBRANCH  33  34
ENDBRANCH   6  33
ENDBRANCH   2   6
ENDBRANCH   1   4
BRANCH   1  40
ATOM     40  C   SER A   5       7.937  -3.922  26.453  0.00  0.00    +0.236 C 
ATOM     41  N   GLY A   6       6.676  -4.040  26.979  0.00  0.00    -0.305 N 
ATOM     42  H   GLY A   6       5.991  -3.293  26.899  0.00  0.00    +0.149 HD
ATOM     43  O   SER A   5       8.814  -4.766  26.646  0.00  0.00    -0.274 OA
BRANCH  41  44
ATOM     44  CA  GLY A   6       6.293  -5.200  27.761  0.00  0.00    +0.200 C 
BRANCH  44  45
ATOM     45  C   GLY A   6       5.383  -6.084  26.917  0.00  0.00    +0.231 C 
ATOM     46  O   GLY A   6       5.157  -7.257  27.210  0.00  0.00    -0.274 OA
ATOM     47  N   PHE A   7       4.847  -5.465  25.814  0.00  0.00    -0.302 N 
ATOM     48  H   PHE A   7       5.105  -4.511  25.582  0.00  0.00    +0.150 HD
BRANCH  47  49
ATOM     49  CA  PHE A   7       3.798  -6.087  25.009  0.00  0.00    +0.163 C 
BRANCH  49  50
ATOM     50  C   PHE A   7       4.143  -5.840  23.530  0.00  0.00    +0.234 C 
ATOM     51  N   ARG A   8       5.392  -5.314  23.298  0.00  0.00    -0.304 N 
ATOM     52  H   ARG A   8       5.996  -5.045  24.074  0.00  0.00    +0.149 HD
ATOM     53  O   PHE A   7       3.377  -6.127  22.608  0.00  0.00    -0.274 OA
BRANCH  51  54
ATOM     54  CA  ARG A   8       5.880  -5.062  21.949  0.00  0.00    +0.136 C 
BRANCH  54  55
ATOM     55  C   ARG A   8       7.374  -5.353  21.949  0.00  0.00    +0.245 C 
ATOM     56  O   ARG A   8       8.003  -5.654  22.961  0.00  0.00    -0.299 OA
ENDBRANCH  54  55
BRANCH  54  57
ATOM     57  CB  ARG A   8       5.612  -3.612  21.523  0.00  0.00    +0.033 C 
BRANCH  57  58
ATOM     58  CG  ARG A   8       6.338  -2.589  22.402  0.00  0.00    +0.039 C 
BRANCH  58  59
ATOM     59  CD  ARG A   8       6.838  -1.408  21.569  0.00  0.00    +0.196 C 
BRANCH  59  60
ATOM     60  NE  ARG A   8       6.042  -1.251  20.341  0.00  0.00    -0.279 N 
ATOM     61  HE  ARG A   8       5.152  -1.731  20.272  0.00  0.00    +0.258 HD
ATOM     62  CZ  ARG A   8       6.405  -0.485  19.298  0.00  0.00    +0.341 C 
ATOM     63  NH2 ARG A   8       5.602  -0.401  18.234  0.00  0.00    -0.292 N 
ATOM     64 HH21 ARG A   8       4.721  -0.896  18.185  0.00  0.00    +0.255 HD
ATOM     65 HH22 ARG A   8       5.846   0.168  17.433  0.00  0.00    +0.255 HD
ATOM     66  NH1 ARG A   8       7.552   0.199  19.288  0.00  0.00    -0.292 N 
ATOM     67 HH11 ARG A   8       8.192   0.169  20.071  0.00  0.00    +0.255 HD
ATOM     68 HH12 ARG A   8       7.820   0.776  18.503  0.00  0.00    +0.255 HD
ENDBRANCH  59  60
ENDBRANCH  58  59
ENDBRANCH  57  58
ENDBRANCH  54  57
ENDBRANCH  51  54
ENDBRANCH  49  50
BRANCH  49  69
ATOM     69  CB  PHE A   7       2.408  -5.490  25.304  0.00  0.00    +0.067 C 
BRANCH  69  70
ATOM     70  CG  PHE A   7       2.422  -4.366  26.312  0.00  0.00    -0.045 A 
ATOM     71  CD2 PHE A   7       2.097  -4.611  27.654  0.00  0.00    +0.004 A 
ATOM     72  CE2 PHE A   7       2.072  -3.567  28.580  0.00  0.00    +0.000 A 
ATOM     73  CZ  PHE A   7       2.378  -2.269  28.176  0.00  0.00    +0.000 A 
ATOM     74  CE1 PHE A   7       2.707  -2.015  26.845  0.00  0.00    +0.000 A 
ATOM     75  CD1 PHE A   7       2.727  -3.057  25.916  0.00  0.00    +0.004 A 
ENDBRANCH  69  70
ENDBRANCH  49  69
ENDBRANCH  47  49
ENDBRANCH  44  45
ENDBRANCH  41  44
ENDBRANCH   1  40
BRANCH   1  76
ATOM     76  CB  SER A   5       9.587  -2.680  24.972  0.00  0.00    +0.187 C 
BRANCH  76  77
ATOM     77  OG  SER A   5       9.801  -3.897  24.256  0.00  0.00    -0.393 OA
ATOM     78  H   SER A   5      10.201  -3.651  23.402  0.00  0.00    +0.209 HD
ENDBRANCH  76  77
ENDBRANCH   1  76
TORSDOF 30
ENDMDL
MODEL 18
REMARK VINA RESULT:      -4.8      2.157      6.644
REMARK  Name = AVLQSGFR-mmff94.pdb
REMARK  35 active torsions:
REMARK  status: ('A' for Active; 'I' for Inactive)
REMARK    1  A    between atoms: _1  and  _2
REMARK    2  A    between atoms: _2  and  _3
REMARK    3  A    between atoms: _2  and  _5
REMARK    4  A    between atoms: _11  and  _12
REMARK    5  A    between atoms: _12  and  _13
REMARK    6  A    between atoms: _12  and  _15
REMARK    7  A    between atoms: _15  and  _16
REMARK    8  A    between atoms: _15  and  _17
REMARK    9  A    between atoms: _27  and  _28
REMARK   10  A    between atoms: _28  and  _29
REMARK   11  A    between atoms: _28  and  _31
REMARK   12  A    between atoms: _31  and  _32
REMARK   13  A    between atoms: _32  and  _33
REMARK   14  A    between atoms: _32  and  _34
REMARK   15  A    between atoms: _46  and  _47
REMARK   16  A    between atoms: _47  and  _48
REMARK   17  A    between atoms: _47  and  _50
REMARK   18  A    between atoms: _50  and  _51
REMARK   19  A    between atoms: _51  and  _52
REMARK   20  A    between atoms: _63  and  _64
REMARK   21  A    between atoms: _64  and  _65
REMARK   22  A    between atoms: _64  and  _67
REMARK   23  A    between atoms: _67  and  _68
REMARK   24  A    between atoms: _74  and  _75
REMARK   25  A    between atoms: _75  and  _76
REMARK   26  A    between atoms: _81  and  _82
REMARK   27  A    between atoms: _82  and  _83
REMARK   28  A    between atoms: _82  and  _85
REMARK   29  A    between atoms: _85  and  _86
REMARK   30  A    between atoms: _101  and  _102
REMARK   31  A    between atoms: _102  and  _103
REMARK   32  A    between atoms: _102  and  _105
REMARK   33  A    between atoms: _105  and  _106
REMARK   34  A    between atoms: _106  and  _107
REMARK   35  A    between atoms: _107  and  _108
REMARK                            x       y       z     vdW  Elec       q    Type
REMARK                         _______ _______ _______ _____ _____    ______ ____
ROOT
ATOM      1  CA  SER A   5       6.162  -4.320  21.853  0.00  0.00    +0.184 C 
ENDROOT
BRANCH   1   4
ATOM      2  C   GLN A   4       6.867  -1.948  21.625  0.00  0.00    +0.234 C 
ATOM      3  O   GLN A   4       7.963  -2.167  22.140  0.00  0.00    -0.274 OA
ATOM      4  N   SER A   5       5.902  -2.915  21.516  0.00  0.00    -0.301 N 
ATOM      5  H   SER A   5       5.025  -2.736  21.029  0.00  0.00    +0.150 HD
BRANCH   2   6
ATOM      6  CA  GLN A   4       6.506  -0.577  21.019  0.00  0.00    +0.159 C 
BRANCH   6   8
ATOM      7  C   LEU A   3       6.625   1.738  21.929  0.00  0.00    +0.234 C 
ATOM      8  N   GLN A   4       7.038   0.427  21.940  0.00  0.00    -0.302 N 
ATOM      9  H   GLN A   4       7.788   0.130  22.558  0.00  0.00    +0.150 HD
ATOM     10  O   LEU A   3       5.756   2.152  21.163  0.00  0.00    -0.274 OA
BRANCH   7  11
ATOM     11  CA  LEU A   3       7.311   2.647  22.973  0.00  0.00    +0.159 C 
BRANCH  11  14
ATOM     12  C   VAL A   2       8.512   1.756  24.963  0.00  0.00    +0.234 C 
ATOM     13  O   VAL A   2       7.840   2.412  25.759  0.00  0.00    -0.274 OA
ATOM     14  N   LEU A   3       8.360   1.850  23.601  0.00  0.00    -0.302 N 
ATOM     15  H   LEU A   3       8.858   1.206  22.993  0.00  0.00    +0.150 HD
BRANCH  12  16
ATOM     16  CA  VAL A   2       9.575   0.744  25.437  0.00  0.00    +0.161 C 
BRANCH  16  18
ATOM     17  C   ALA A   1       8.198  -0.994  26.573  0.00  0.00    +0.230 C 
ATOM     18  N   VAL A   2       8.881  -0.543  25.470  0.00  0.00    -0.302 N 
ATOM     19  H   VAL A   2       8.851  -1.067  24.600  0.00  0.00    +0.150 HD
ATOM     20  O   ALA A   1       8.143  -0.368  27.630  0.00  0.00    -0.274 OA
BRANCH  17  21
ATOM     21  CA  ALA A   1       7.509  -2.361  26.384  0.00  0.00    +0.135 C 
ATOM     22  CB  ALA A   1       8.552  -3.469  26.430  0.00  0.00    +0.033 C 
BRANCH  21  23
ATOM     23  N   ALA A   1       6.798  -2.384  25.092  0.00  0.00    -0.320 NA
ATOM     24  H1  ALA A   1       7.050  -3.245  24.603  0.00  0.00    +0.119 HD
ATOM     25  H2  ALA A   1       5.801  -2.503  25.296  0.00  0.00    +0.119 HD
ENDBRANCH  21  23
ENDBRANCH  17  21
ENDBRANCH  16  18
BRANCH  16  26
ATOM     26  CB  VAL A   2      10.785   0.720  24.470  0.00  0.00    +0.012 C 
ATOM     27  CG2 VAL A   2      11.066   2.100  23.866  0.00  0.00    +0.009 C 
ATOM     28  CG1 VAL A   2      10.589  -0.284  23.327  0.00  0.00    +0.009 C 
ENDBRANCH  16  26
ENDBRANCH  12  16
ENDBRANCH  11  14
BRANCH  11  29
ATOM     29  CB  LEU A   3       7.878   3.895  22.276  0.00  0.00    +0.034 C 
BRANCH  29  30
ATOM     30  CG  LEU A   3       7.874   5.178  23.130  0.00  0.00    -0.015 C 
ATOM     31  CD2 LEU A   3       6.645   5.184  24.046  0.00  0.00    +0.007 C 
ATOM     32  CD1 LEU A   3       9.140   5.312  23.979  0.00  0.00    +0.007 C 
ENDBRANCH  29  30
ENDBRANCH  11  29
ENDBRANCH   7  11
ENDBRANCH   6   8
BRANCH   6  33
ATOM     33  CB  GLN A   4       7.120  -0.399  19.621  0.00  0.00    +0.041 C 
BRANCH  33  34
ATOM     34  CG  GLN A   4       6.096  -0.435  18.488  0.00  0.00    +0.098 C 
BRANCH  34  35
ATOM     35  CD  GLN A   4       5.692   0.930  17.970  0.00  0.00    +0.211 C 
ATOM     36  OE1 GLN A   4       6.321   1.515  17.094  0.00  0.00    -0.276 OA
ATOM     37  NE2 GLN A   4       4.647   1.543  18.590  0.00  0.00    -0.329 N 
ATOM     38 HE21 GLN A   4       4.002   1.070  19.205  0.00  0.00    +0.145 HD
ATOM     39 HE22 GLN A   4       4.362   2.439  18.214  0.00  0.00    +0.145 HD
ENDBRANCH  34  35
ENDBRANCH  33  34
ENDBRANCH   6  33
ENDBRANCH   2   6
ENDBRANCH   1   4
BRANCH   1  40
ATOM     40  C   SER A   5       4.916  -4.853  22.578  0.00  0.00    +0.236 C 
ATOM     41  N   GLY A   6       4.387  -4.031  23.540  0.00  0.00    -0.305 N 
ATOM     42  H   GLY A   6       4.839  -3.162  23.809  0.00  0.00    +0.149 HD
ATOM     43  O   SER A   5       4.446  -5.964  22.326  0.00  0.00    -0.274 OA
BRANCH  41  44
ATOM     44  CA  GLY A   6       3.204  -4.414  24.287  0.00  0.00    +0.200 C 
BRANCH  44  45
ATOM     45  C   GLY A   6       2.860  -3.301  25.270  0.00  0.00    +0.231 C 
ATOM     46  O   GLY A   6       1.740  -2.798  25.321  0.00  0.00    -0.274 OA
ATOM     47  N   PHE A   7       3.900  -2.914  26.080  0.00  0.00    -0.302 N 
ATOM     48  H   PHE A   7       4.823  -3.320  25.965  0.00  0.00    +0.150 HD
BRANCH  47  49
ATOM     49  CA  PHE A   7       3.704  -2.013  27.215  0.00  0.00    +0.163 C 
BRANCH  49  50
ATOM     50  C   PHE A   7       4.292  -0.645  26.825  0.00  0.00    +0.234 C 
ATOM     51  N   ARG A   8       4.431   0.251  27.858  0.00  0.00    -0.304 N 
ATOM     52  H   ARG A   8       4.089   0.026  28.792  0.00  0.00    +0.149 HD
ATOM     53  O   PHE A   7       4.653  -0.375  25.678  0.00  0.00    -0.274 OA
BRANCH  51  54
ATOM     54  CA  ARG A   8       5.009   1.573  27.657  0.00  0.00    +0.136 C 
BRANCH  54  55
ATOM     55  C   ARG A   8       5.685   1.972  28.960  0.00  0.00    +0.245 C 
ATOM     56  O   ARG A   8       5.983   1.168  29.840  0.00  0.00    -0.299 OA
ENDBRANCH  54  55
BRANCH  54  57
ATOM     57  CB  ARG A   8       3.933   2.597  27.270  0.00  0.00    +0.033 C 
BRANCH  57  58
ATOM     58  CG  ARG A   8       4.257   3.340  25.970  0.00  0.00    +0.039 C 
BRANCH  58  59
ATOM     59  CD  ARG A   8       3.072   3.298  25.005  0.00  0.00    +0.196 C 
BRANCH  59  60
ATOM     60  NE  ARG A   8       3.170   4.366  23.999  0.00  0.00    -0.279 N 
ATOM     61  HE  ARG A   8       3.226   5.328  24.313  0.00  0.00    +0.258 HD
ATOM     62  CZ  ARG A   8       3.217   4.154  22.673  0.00  0.00    +0.341 C 
ATOM     63  NH2 ARG A   8       3.320   5.196  21.843  0.00  0.00    -0.292 N 
ATOM     64 HH21 ARG A   8       3.367   6.149  22.181  0.00  0.00    +0.255 HD
ATOM     65 HH22 ARG A   8       3.359   5.069  20.840  0.00  0.00    +0.255 HD
ATOM     66  NH1 ARG A   8       3.162   2.926  22.151  0.00  0.00    -0.292 N 
ATOM     67 HH11 ARG A   8       3.086   2.105  22.738  0.00  0.00    +0.255 HD
ATOM     68 HH12 ARG A   8       3.201   2.770  21.153  0.00  0.00    +0.255 HD
ENDBRANCH  59  60
ENDBRANCH  58  59
ENDBRANCH  57  58
ENDBRANCH  54  57
ENDBRANCH  51  54
ENDBRANCH  49  50
BRANCH  49  69
ATOM     69  CB  PHE A   7       4.413  -2.516  28.486  0.00  0.00    +0.067 C 
BRANCH  69  70
ATOM     70  CG  PHE A   7       4.390  -4.017  28.651  0.00  0.00    -0.045 A 
ATOM     71  CD2 PHE A   7       5.554  -4.772  28.445  0.00  0.00    +0.004 A 
ATOM     72  CE2 PHE A   7       5.526  -6.163  28.560  0.00  0.00    +0.000 A 
ATOM     73  CZ  PHE A   7       4.338  -6.812  28.888  0.00  0.00    +0.000 A 
ATOM     74  CE1 PHE A   7       3.176  -6.071  29.098  0.00  0.00    +0.000 A 
ATOM     75  CD1 PHE A   7       3.200  -4.680  28.979  0.00  0.00    +0.004 A 
ENDBRANCH  69  70
ENDBRANCH  49  69
ENDBRANCH  47  49
ENDBRANCH  44  45
ENDBRANCH  41  44
ENDBRANCH   1  40
BRANCH   1  76
ATOM     76  CB  SER A   5       7.427  -4.486  22.703  0.00  0.00    +0.187 C 
BRANCH  76  77
ATOM     77  OG  SER A   5       7.184  -5.281  23.864  0.00  0.00    -0.393 OA
ATOM     78  H   SER A   5       7.636  -4.837  24.605  0.00  0.00    +0.209 HD
ENDBRANCH  76  77
ENDBRANCH   1  76
TORSDOF 30
ENDMDL
MODEL 19
REMARK VINA RESULT:      -4.7      2.325      6.519
REMARK  Name = AVLQSGFR-mmff94.pdb
REMARK  35 active torsions:
REMARK  status: ('A' for Active; 'I' for Inactive)
REMARK    1  A    between atoms: _1  and  _2
REMARK    2  A    between atoms: _2  and  _3
REMARK    3  A    between atoms: _2  and  _5
REMARK    4  A    between atoms: _11  and  _12
REMARK    5  A    between atoms: _12  and  _13
REMARK    6  A    between atoms: _12  and  _15
REMARK    7  A    between atoms: _15  and  _16
REMARK    8  A    between atoms: _15  and  _17
REMARK    9  A    between atoms: _27  and  _28
REMARK   10  A    between atoms: _28  and  _29
REMARK   11  A    between atoms: _28  and  _31
REMARK   12  A    between atoms: _31  and  _32
REMARK   13  A    between atoms: _32  and  _33
REMARK   14  A    between atoms: _32  and  _34
REMARK   15  A    between atoms: _46  and  _47
REMARK   16  A    between atoms: _47  and  _48
REMARK   17  A    between atoms: _47  and  _50
REMARK   18  A    between atoms: _50  and  _51
REMARK   19  A    between atoms: _51  and  _52
REMARK   20  A    between atoms: _63  and  _64
REMARK   21  A    between atoms: _64  and  _65
REMARK   22  A    between atoms: _64  and  _67
REMARK   23  A    between atoms: _67  and  _68
REMARK   24  A    between atoms: _74  and  _75
REMARK   25  A    between atoms: _75  and  _76
REMARK   26  A    between atoms: _81  and  _82
REMARK   27  A    between atoms: _82  and  _83
REMARK   28  A    between atoms: _82  and  _85
REMARK   29  A    between atoms: _85  and  _86
REMARK   30  A    between atoms: _101  and  _102
REMARK   31  A    between atoms: _102  and  _103
REMARK   32  A    between atoms: _102  and  _105
REMARK   33  A    between atoms: _105  and  _106
REMARK   34  A    between atoms: _106  and  _107
REMARK   35  A    between atoms: _107  and  _108
REMARK                            x       y       z     vdW  Elec       q    Type
REMARK                         _______ _______ _______ _____ _____    ______ ____
ROOT
ATOM      1  CA  SER A   5       4.793  -0.495  28.408  0.00  0.00    +0.184 C 
ENDROOT
BRANCH   1   4
ATOM      2  C   GLN A   4       6.432   1.372  28.441  0.00  0.00    +0.234 C 
ATOM      3  O   GLN A   4       7.315   0.660  28.920  0.00  0.00    -0.274 OA
ATOM      4  N   SER A   5       5.157   0.916  28.232  0.00  0.00    -0.301 N 
ATOM      5  H   SER A   5       4.456   1.496  27.774  0.00  0.00    +0.150 HD
BRANCH   2   6
ATOM      6  CA  GLN A   4       6.702   2.822  27.995  0.00  0.00    +0.159 C 
BRANCH   6   8
ATOM      7  C   LEU A   3       6.998   3.315  25.571  0.00  0.00    +0.234 C 
ATOM      8  N   GLN A   4       6.204   2.925  26.623  0.00  0.00    -0.302 N 
ATOM      9  H   GLN A   4       5.211   2.758  26.483  0.00  0.00    +0.150 HD
ATOM     10  O   LEU A   3       8.194   3.575  25.705  0.00  0.00    -0.274 OA
BRANCH   7  11
ATOM     11  CA  LEU A   3       6.287   3.370  24.202  0.00  0.00    +0.159 C 
BRANCH  11  14
ATOM     12  C   VAL A   2       7.629   2.303  22.397  0.00  0.00    +0.234 C 
ATOM     13  O   VAL A   2       8.034   3.378  21.955  0.00  0.00    -0.274 OA
ATOM     14  N   LEU A   3       6.743   2.210  23.443  0.00  0.00    -0.302 N 
ATOM     15  H   LEU A   3       6.529   1.300  23.843  0.00  0.00    +0.150 HD
BRANCH  12  16
ATOM     16  CA  VAL A   2       8.111   0.954  21.824  0.00  0.00    +0.161 C 
BRANCH  16  18
ATOM     17  C   ALA A   1       6.924  -0.031  19.867  0.00  0.00    +0.230 C 
ATOM     18  N   VAL A   2       7.685   0.967  20.425  0.00  0.00    -0.302 N 
ATOM     19  H   VAL A   2       7.909   1.801  19.888  0.00  0.00    +0.150 HD
ATOM     20  O   ALA A   1       6.567  -1.029  20.490  0.00  0.00    -0.274 OA
BRANCH  17  21
ATOM     21  CA  ALA A   1       6.557   0.196  18.387  0.00  0.00    +0.135 C 
ATOM     22  CB  ALA A   1       5.580   1.359  18.275  0.00  0.00    +0.033 C 
BRANCH  21  23
ATOM     23  N   ALA A   1       5.955  -1.029  17.829  0.00  0.00    -0.320 NA
ATOM     24  H1  ALA A   1       5.343  -1.436  18.538  0.00  0.00    +0.119 HD
ATOM     25  H2  ALA A   1       5.310  -0.741  17.087  0.00  0.00    +0.119 HD
ENDBRANCH  21  23
ENDBRANCH  17  21
ENDBRANCH  16  18
BRANCH  16  26
ATOM     26  CB  VAL A   2       9.648   0.814  21.956  0.00  0.00    +0.012 C 
ATOM     27  CG2 VAL A   2      10.088  -0.652  22.025  0.00  0.00    +0.009 C 
ATOM     28  CG1 VAL A   2      10.188   1.547  23.191  0.00  0.00    +0.009 C 
ENDBRANCH  16  26
ENDBRANCH  12  16
ENDBRANCH  11  14
BRANCH  11  29
ATOM     29  CB  LEU A   3       4.764   3.357  24.411  0.00  0.00    +0.034 C 
BRANCH  29  30
ATOM     30  CG  LEU A   3       3.979   4.376  23.561  0.00  0.00    -0.015 C 
ATOM     31  CD2 LEU A   3       4.955   5.338  22.877  0.00  0.00    +0.007 C 
ATOM     32  CD1 LEU A   3       3.109   3.696  22.501  0.00  0.00    +0.007 C 
ENDBRANCH  29  30
ENDBRANCH  11  29
ENDBRANCH   7  11
ENDBRANCH   6   8
BRANCH   6  33
ATOM     33  CB  GLN A   4       5.984   3.835  28.902  0.00  0.00    +0.041 C 
BRANCH  33  34
ATOM     34  CG  GLN A   4       4.845   4.584  28.211  0.00  0.00    +0.098 C 
BRANCH  34  35
ATOM     35  CD  GLN A   4       3.490   3.921  28.351  0.00  0.00    +0.211 C 
ATOM     36  OE1 GLN A   4       3.096   3.059  27.571  0.00  0.00    -0.276 OA
ATOM     37  NE2 GLN A   4       2.668   4.392  29.327  0.00  0.00    -0.329 N 
ATOM     38 HE21 GLN A   4       2.976   4.983  30.084  0.00  0.00    +0.145 HD
ATOM     39 HE22 GLN A   4       1.779   3.919  29.435  0.00  0.00    +0.145 HD
ENDBRANCH  34  35
ENDBRANCH  33  34
ENDBRANCH   6  33
ENDBRANCH   2   6
ENDBRANCH   1   4
BRANCH   1  40
ATOM     40  C   SER A   5       3.907  -0.889  27.216  0.00  0.00    +0.236 C 
ATOM     41  N   GLY A   6       2.921  -1.804  27.482  0.00  0.00    -0.305 N 
ATOM     42  H   GLY A   6       2.836  -2.251  28.390  0.00  0.00    +0.149 HD
ATOM     43  O   SER A   5       4.096  -0.430  26.088  0.00  0.00    -0.274 OA
BRANCH  41  44
ATOM     44  CA  GLY A   6       2.010  -2.250  26.444  0.00  0.00    +0.200 C 
BRANCH  44  45
ATOM     45  C   GLY A   6       2.199  -3.747  26.232  0.00  0.00    +0.231 C 
ATOM     46  O   GLY A   6       1.653  -4.583  26.949  0.00  0.00    -0.274 OA
ATOM     47  N   PHE A   7       3.025  -4.075  25.184  0.00  0.00    -0.302 N 
ATOM     48  H   PHE A   7       3.498  -3.351  24.654  0.00  0.00    +0.150 HD
BRANCH  47  49
ATOM     49  CA  PHE A   7       3.159  -5.449  24.704  0.00  0.00    +0.163 C 
BRANCH  49  50
ATOM     50  C   PHE A   7       4.354  -6.081  25.440  0.00  0.00    +0.234 C 
ATOM     51  N   ARG A   8       5.322  -5.198  25.856  0.00  0.00    -0.304 N 
ATOM     52  H   ARG A   8       5.264  -4.210  25.612  0.00  0.00    +0.149 HD
ATOM     53  O   PHE A   7       4.428  -7.287  25.682  0.00  0.00    -0.274 OA
BRANCH  51  54
ATOM     54  CA  ARG A   8       6.495  -5.637  26.601  0.00  0.00    +0.136 C 
BRANCH  54  55
ATOM     55  C   ARG A   8       6.472  -4.917  27.941  0.00  0.00    +0.245 C 
ATOM     56  O   ARG A   8       6.261  -5.486  29.010  0.00  0.00    -0.299 OA
ENDBRANCH  54  55
BRANCH  54  57
ATOM     57  CB  ARG A   8       7.788  -5.321  25.839  0.00  0.00    +0.033 C 
BRANCH  57  58
ATOM     58  CG  ARG A   8       8.462  -4.032  26.317  0.00  0.00    +0.039 C 
BRANCH  58  59
ATOM     59  CD  ARG A   8       8.767  -3.104  25.141  0.00  0.00    +0.196 C 
BRANCH  59  60
ATOM     60  NE  ARG A   8       9.143  -1.761  25.610  0.00  0.00    -0.279 N 
ATOM     61  HE  ARG A   8      10.099  -1.598  25.905  0.00  0.00    +0.258 HD
ATOM     62  CZ  ARG A   8       8.304  -0.711  25.649  0.00  0.00    +0.341 C 
ATOM     63  NH2 ARG A   8       8.751   0.472  26.080  0.00  0.00    -0.292 N 
ATOM     64 HH21 ARG A   8       9.709   0.607  26.378  0.00  0.00    +0.255 HD
ATOM     65 HH22 ARG A   8       8.145   1.281  26.121  0.00  0.00    +0.255 HD
ATOM     66  NH1 ARG A   8       7.028  -0.813  25.271  0.00  0.00    -0.292 N 
ATOM     67 HH11 ARG A   8       6.643  -1.686  24.935  0.00  0.00    +0.255 HD
ATOM     68 HH12 ARG A   8       6.401  -0.020  25.300  0.00  0.00    +0.255 HD
ENDBRANCH  59  60
ENDBRANCH  58  59
ENDBRANCH  57  58
ENDBRANCH  54  57
ENDBRANCH  51  54
ENDBRANCH  49  50
BRANCH  49  69
ATOM     69  CB  PHE A   7       3.419  -5.512  23.187  0.00  0.00    +0.067 C 
BRANCH  69  70
ATOM     70  CG  PHE A   7       4.830  -5.151  22.788  0.00  0.00    -0.045 A 
ATOM     71  CD2 PHE A   7       5.243  -3.810  22.773  0.00  0.00    +0.004 A 
ATOM     72  CE2 PHE A   7       6.535  -3.471  22.368  0.00  0.00    +0.000 A 
ATOM     73  CZ  PHE A   7       7.429  -4.467  21.981  0.00  0.00    +0.000 A 
ATOM     74  CE1 PHE A   7       7.030  -5.803  21.995  0.00  0.00    +0.000 A 
ATOM     75  CD1 PHE A   7       5.736  -6.144  22.394  0.00  0.00    +0.004 A 
ENDBRANCH  69  70
ENDBRANCH  49  69
ENDBRANCH  47  49
ENDBRANCH  44  45
ENDBRANCH  41  44
ENDBRANCH   1  40
BRANCH   1  76
ATOM     76  CB  SER A   5       4.091  -0.749  29.747  0.00  0.00    +0.187 C 
BRANCH  76  77
ATOM     77  OG  SER A   5       4.080  -2.137  30.084  0.00  0.00    -0.393 OA
ATOM     78  H   SER A   5       5.012  -2.414  30.151  0.00  0.00    +0.209 HD
ENDBRANCH  76  77
ENDBRANCH   1  76
TORSDOF 30
ENDMDL
MODEL 20
REMARK VINA RESULT:      -4.7      2.387      6.115
REMARK  Name = AVLQSGFR-mmff94.pdb
REMARK  35 active torsions:
REMARK  status: ('A' for Active; 'I' for Inactive)
REMARK    1  A    between atoms: _1  and  _2
REMARK    2  A    between atoms: _2  and  _3
REMARK    3  A    between atoms: _2  and  _5
REMARK    4  A    between atoms: _11  and  _12
REMARK    5  A    between atoms: _12  and  _13
REMARK    6  A    between atoms: _12  and  _15
REMARK    7  A    between atoms: _15  and  _16
REMARK    8  A    between atoms: _15  and  _17
REMARK    9  A    between atoms: _27  and  _28
REMARK   10  A    between atoms: _28  and  _29
REMARK   11  A    between atoms: _28  and  _31
REMARK   12  A    between atoms: _31  and  _32
REMARK   13  A    between atoms: _32  and  _33
REMARK   14  A    between atoms: _32  and  _34
REMARK   15  A    between atoms: _46  and  _47
REMARK   16  A    between atoms: _47  and  _48
REMARK   17  A    between atoms: _47  and  _50
REMARK   18  A    between atoms: _50  and  _51
REMARK   19  A    between atoms: _51  and  _52
REMARK   20  A    between atoms: _63  and  _64
REMARK   21  A    between atoms: _64  and  _65
REMARK   22  A    between atoms: _64  and  _67
REMARK   23  A    between atoms: _67  and  _68
REMARK   24  A    between atoms: _74  and  _75
REMARK   25  A    between atoms: _75  and  _76
REMARK   26  A    between atoms: _81  and  _82
REMARK   27  A    between atoms: _82  and  _83
REMARK   28  A    between atoms: _82  and  _85
REMARK   29  A    between atoms: _85  and  _86
REMARK   30  A    between atoms: _101  and  _102
REMARK   31  A    between atoms: _102  and  _103
REMARK   32  A    between atoms: _102  and  _105
REMARK   33  A    between atoms: _105  and  _106
REMARK   34  A    between atoms: _106  and  _107
REMARK   35  A    between atoms: _107  and  _108
REMARK                            x       y       z     vdW  Elec       q    Type
REMARK                         _______ _______ _______ _____ _____    ______ ____
ROOT
ATOM      1  CA  SER A   5       5.809  -1.138  27.172  0.00  0.00    +0.184 C 
ENDROOT
BRANCH   1   4
ATOM      2  C   GLN A   4       6.465   1.088  28.061  0.00  0.00    +0.234 C 
ATOM      3  O   GLN A   4       7.468   0.633  28.610  0.00  0.00    -0.274 OA
ATOM      4  N   SER A   5       5.562   0.290  27.407  0.00  0.00    -0.301 N 
ATOM      5  H   SER A   5       4.773   0.688  26.901  0.00  0.00    +0.150 HD
BRANCH   2   6
ATOM      6  CA  GLN A   4       6.165   2.599  28.025  0.00  0.00    +0.159 C 
BRANCH   6   8
ATOM      7  C   LEU A   3       6.570   2.966  25.594  0.00  0.00    +0.234 C 
ATOM      8  N   GLN A   4       5.711   2.892  26.665  0.00  0.00    -0.302 N 
ATOM      9  H   GLN A   4       4.725   3.109  26.549  0.00  0.00    +0.150 HD
ATOM     10  O   LEU A   3       7.778   2.760  25.700  0.00  0.00    -0.274 OA
BRANCH   7  11
ATOM     11  CA  LEU A   3       5.901   3.294  24.242  0.00  0.00    +0.159 C 
BRANCH  11  14
ATOM     12  C   VAL A   2       7.139   2.843  22.130  0.00  0.00    +0.234 C 
ATOM     13  O   VAL A   2       7.199   4.032  21.819  0.00  0.00    -0.274 OA
ATOM     14  N   LEU A   3       6.486   2.395  23.253  0.00  0.00    -0.302 N 
ATOM     15  H   LEU A   3       6.563   1.418  23.525  0.00  0.00    +0.150 HD
BRANCH  12  16
ATOM     16  CA  VAL A   2       7.825   1.746  21.289  0.00  0.00    +0.161 C 
BRANCH  16  18
ATOM     17  C   ALA A   1       9.907   1.236  22.560  0.00  0.00    +0.230 C 
ATOM     18  N   VAL A   2       8.597   0.961  22.251  0.00  0.00    -0.302 N 
ATOM     19  H   VAL A   2       8.093   0.237  22.757  0.00  0.00    +0.150 HD
ATOM     20  O   ALA A   1      10.544   2.144  22.028  0.00  0.00    -0.274 OA
BRANCH  17  21
ATOM     21  CA  ALA A   1      10.522   0.306  23.625  0.00  0.00    +0.135 C 
ATOM     22  CB  ALA A   1      10.173  -1.140  23.302  0.00  0.00    +0.033 C 
BRANCH  21  23
ATOM     23  N   ALA A   1      10.008   0.669  24.958  0.00  0.00    -0.320 NA
ATOM     24  H1  ALA A   1      10.784   0.634  25.621  0.00  0.00    +0.119 HD
ATOM     25  H2  ALA A   1       9.757   1.662  24.928  0.00  0.00    +0.119 HD
ENDBRANCH  21  23
ENDBRANCH  17  21
ENDBRANCH  16  18
BRANCH  16  26
ATOM     26  CB  VAL A   2       6.775   0.880  20.549  0.00  0.00    +0.012 C 
ATOM     27  CG2 VAL A   2       7.426  -0.080  19.546  0.00  0.00    +0.009 C 
ATOM     28  CG1 VAL A   2       5.742   1.737  19.808  0.00  0.00    +0.009 C 
ENDBRANCH  16  26
ENDBRANCH  12  16
ENDBRANCH  11  14
BRANCH  11  29
ATOM     29  CB  LEU A   3       4.380   3.105  24.360  0.00  0.00    +0.034 C 
BRANCH  29  30
ATOM     30  CG  LEU A   3       3.533   4.290  23.854  0.00  0.00    -0.015 C 
ATOM     31  CD2 LEU A   3       4.017   5.587  24.510  0.00  0.00    +0.007 C 
ATOM     32  CD1 LEU A   3       3.595   4.437  22.332  0.00  0.00    +0.007 C 
ENDBRANCH  29  30
ENDBRANCH  11  29
ENDBRANCH   7  11
ENDBRANCH   6   8
BRANCH   6  33
ATOM     33  CB  GLN A   4       5.081   2.985  29.045  0.00  0.00    +0.041 C 
BRANCH  33  34
ATOM     34  CG  GLN A   4       4.024   3.939  28.492  0.00  0.00    +0.098 C 
BRANCH  34  35
ATOM     35  CD  GLN A   4       2.631   3.711  29.042  0.00  0.00    +0.211 C 
ATOM     36  OE1 GLN A   4       2.420   3.502  30.233  0.00  0.00    -0.276 OA
ATOM     37  NE2 GLN A   4       1.613   3.643  28.142  0.00  0.00    -0.329 N 
ATOM     38 HE21 GLN A   4       1.689   3.948  27.184  0.00  0.00    +0.145 HD
ATOM     39 HE22 GLN A   4       0.681   3.527  28.523  0.00  0.00    +0.145 HD
ENDBRANCH  34  35
ENDBRANCH  33  34
ENDBRANCH   6  33
ENDBRANCH   2   6
ENDBRANCH   1   4
BRANCH   1  40
ATOM     40  C   SER A   5       6.556  -1.257  25.834  0.00  0.00    +0.236 C 
ATOM     41  N   GLY A   6       5.769  -1.283  24.711  0.00  0.00    -0.305 N 
ATOM     42  H   GLY A   6       4.755  -1.303  24.768  0.00  0.00    +0.149 HD
ATOM     43  O   SER A   5       7.784  -1.353  25.783  0.00  0.00    -0.274 OA
BRANCH  41  44
ATOM     44  CA  GLY A   6       6.353  -1.381  23.387  0.00  0.00    +0.200 C 
BRANCH  44  45
ATOM     45  C   GLY A   6       5.813  -2.630  22.701  0.00  0.00    +0.231 C 
ATOM     46  O   GLY A   6       5.795  -2.748  21.477  0.00  0.00    -0.274 OA
ATOM     47  N   PHE A   7       5.352  -3.598  23.559  0.00  0.00    -0.302 N 
ATOM     48  H   PHE A   7       5.336  -3.435  24.561  0.00  0.00    +0.150 HD
BRANCH  47  49
ATOM     49  CA  PHE A   7       4.992  -4.937  23.096  0.00  0.00    +0.163 C 
BRANCH  49  50
ATOM     50  C   PHE A   7       3.537  -5.198  23.523  0.00  0.00    +0.234 C 
ATOM     51  N   ARG A   8       3.310  -5.181  24.879  0.00  0.00    -0.304 N 
ATOM     52  H   ARG A   8       4.084  -5.077  25.535  0.00  0.00    +0.149 HD
ATOM     53  O   PHE A   7       2.623  -5.370  22.713  0.00  0.00    -0.274 OA
BRANCH  51  54
ATOM     54  CA  ARG A   8       1.978  -5.371  25.438  0.00  0.00    +0.136 C 
BRANCH  54  55
ATOM     55  C   ARG A   8       1.455  -3.997  25.833  0.00  0.00    +0.245 C 
ATOM     56  O   ARG A   8       1.848  -2.952  25.319  0.00  0.00    -0.299 OA
ENDBRANCH  54  55
BRANCH  54  57
ATOM     57  CB  ARG A   8       2.014  -6.306  26.654  0.00  0.00    +0.033 C 
BRANCH  57  58
ATOM     58  CG  ARG A   8       2.712  -5.682  27.866  0.00  0.00    +0.039 C 
BRANCH  58  59
ATOM     59  CD  ARG A   8       3.010  -6.737  28.931  0.00  0.00    +0.196 C 
BRANCH  59  60
ATOM     60  NE  ARG A   8       4.369  -7.279  28.774  0.00  0.00    -0.279 N 
ATOM     61  HE  ARG A   8       4.502  -8.101  28.196  0.00  0.00    +0.258 HD
ATOM     62  CZ  ARG A   8       5.467  -6.738  29.330  0.00  0.00    +0.341 C 
ATOM     63  NH2 ARG A   8       6.659  -7.301  29.113  0.00  0.00    -0.292 N 
ATOM     64 HH21 ARG A   8       6.765  -8.127  28.539  0.00  0.00    +0.255 HD
ATOM     65 HH22 ARG A   8       7.504  -6.918  29.517  0.00  0.00    +0.255 HD
ATOM     66  NH1 ARG A   8       5.406  -5.649  30.099  0.00  0.00    -0.292 N 
ATOM     67 HH11 ARG A   8       4.527  -5.184  30.291  0.00  0.00    +0.255 HD
ATOM     68 HH12 ARG A   8       6.234  -5.243  30.513  0.00  0.00    +0.255 HD
ENDBRANCH  59  60
ENDBRANCH  58  59
ENDBRANCH  57  58
ENDBRANCH  54  57
ENDBRANCH  51  54
ENDBRANCH  49  50
BRANCH  49  69
ATOM     69  CB  PHE A   7       5.893  -6.026  23.707  0.00  0.00    +0.067 C 
BRANCH  69  70
ATOM     70  CG  PHE A   7       6.977  -5.491  24.613  0.00  0.00    -0.045 A 
ATOM     71  CD2 PHE A   7       6.775  -5.424  26.000  0.00  0.00    +0.004 A 
ATOM     72  CE2 PHE A   7       7.760  -4.895  26.835  0.00  0.00    +0.000 A 
ATOM     73  CZ  PHE A   7       8.959  -4.435  26.294  0.00  0.00    +0.000 A 
ATOM     74  CE1 PHE A   7       9.172  -4.500  24.918  0.00  0.00    +0.000 A 
ATOM     75  CD1 PHE A   7       8.185  -5.024  24.080  0.00  0.00    +0.004 A 
ENDBRANCH  69  70
ENDBRANCH  49  69
ENDBRANCH  47  49
ENDBRANCH  44  45
ENDBRANCH  41  44
ENDBRANCH   1  40
BRANCH   1  76
ATOM     76  CB  SER A   5       4.513  -1.957  27.174  0.00  0.00    +0.187 C 
BRANCH  76  77
ATOM     77  OG  SER A   5       4.659  -3.179  26.448  0.00  0.00    -0.393 OA
ATOM     78  H   SER A   5       4.244  -3.037  25.578  0.00  0.00    +0.209 HD
ENDBRANCH  76  77
ENDBRANCH   1  76
TORSDOF 30
ENDMDL
