REMARK  Name = AVLQSGFR-mmff94.pdb
REMARK  35 active torsions:
REMARK  status: ('A' for Active; 'I' for Inactive)
REMARK    1  A    between atoms: _1  and  _2
REMARK    2  A    between atoms: _2  and  _3
REMARK    3  A    between atoms: _2  and  _5
REMARK    4  A    between atoms: _11  and  _12
REMARK    5  A    between atoms: _12  and  _13
REMARK    6  A    between atoms: _12  and  _15
REMARK    7  A    between atoms: _15  and  _16
REMARK    8  A    between atoms: _15  and  _17
REMARK    9  A    between atoms: _27  and  _28
REMARK   10  A    between atoms: _28  and  _29
REMARK   11  A    between atoms: _28  and  _31
REMARK   12  A    between atoms: _31  and  _32
REMARK   13  A    between atoms: _32  and  _33
REMARK   14  A    between atoms: _32  and  _34
REMARK   15  A    between atoms: _46  and  _47
REMARK   16  A    between atoms: _47  and  _48
REMARK   17  A    between atoms: _47  and  _50
REMARK   18  A    between atoms: _50  and  _51
REMARK   19  A    between atoms: _51  and  _52
REMARK   20  A    between atoms: _63  and  _64
REMARK   21  A    between atoms: _64  and  _65
REMARK   22  A    between atoms: _64  and  _67
REMARK   23  A    between atoms: _67  and  _68
REMARK   24  A    between atoms: _74  and  _75
REMARK   25  A    between atoms: _75  and  _76
REMARK   26  A    between atoms: _81  and  _82
REMARK   27  A    between atoms: _82  and  _83
REMARK   28  A    between atoms: _82  and  _85
REMARK   29  A    between atoms: _85  and  _86
REMARK   30  A    between atoms: _101  and  _102
REMARK   31  A    between atoms: _102  and  _103
REMARK   32  A    between atoms: _102  and  _105
REMARK   33  A    between atoms: _105  and  _106
REMARK   34  A    between atoms: _106  and  _107
REMARK   35  A    between atoms: _107  and  _108
REMARK                            x       y       z     vdW  Elec       q    Type
REMARK                         _______ _______ _______ _____ _____    ______ ____
ROOT
ATOM      1  CA  SER A   5      12.597   6.876  -0.361  0.00  0.00    +0.184 C 
ENDROOT
BRANCH   1   4
ATOM      2  C   GLN A   4      10.560   5.489  -0.677  0.00  0.00    +0.234 C 
ATOM      3  O   GLN A   4       9.907   6.446  -1.093  0.00  0.00    -0.274 OA
ATOM      4  N   SER A   5      11.848   5.621  -0.227  0.00  0.00    -0.301 N 
ATOM      5  H   SER A   5      12.397   4.810   0.052  0.00  0.00    +0.150 HD
BRANCH   2   6
ATOM      6  CA  GLN A   4       9.997   4.054  -0.671  0.00  0.00    +0.159 C 
BRANCH   6   8
ATOM      7  C   LEU A   3       7.717   3.153  -0.230  0.00  0.00    +0.234 C 
ATOM      8  N   GLN A   4       8.542   4.188  -0.600  0.00  0.00    -0.302 N 
ATOM      9  H   GLN A   4       8.149   5.075  -0.905  0.00  0.00    +0.150 HD
ATOM     10  O   LEU A   3       8.148   2.048   0.098  0.00  0.00    -0.274 OA
BRANCH   7  11
ATOM     11  CA  LEU A   3       6.210   3.489  -0.225  0.00  0.00    +0.159 C 
BRANCH  11  14
ATOM     12  C   VAL A   2       4.376   1.963  -0.936  0.00  0.00    +0.234 C 
ATOM     13  O   VAL A   2       3.831   2.817  -1.635  0.00  0.00    -0.274 OA
ATOM     14  N   LEU A   3       5.495   2.217  -0.181  0.00  0.00    -0.302 N 
ATOM     15  H   LEU A   3       5.972   1.451   0.287  0.00  0.00    +0.150 HD
BRANCH  12  16
ATOM     16  CA  VAL A   2       3.856   0.512  -0.871  0.00  0.00    +0.161 C 
BRANCH  16  18
ATOM     17  C   ALA A   1       1.559  -0.171  -0.187  0.00  0.00    +0.230 C 
ATOM     18  N   VAL A   2       2.399   0.632  -0.919  0.00  0.00    -0.302 N 
ATOM     19  H   VAL A   2       2.024   1.404  -1.464  0.00  0.00    +0.150 HD
ATOM     20  O   ALA A   1       1.963  -1.075   0.542  0.00  0.00    -0.274 OA
BRANCH  17  21
ATOM     21  CA  ALA A   1       0.060   0.147  -0.359  0.00  0.00    +0.135 C 
ATOM     22  CB  ALA A   1      -0.379   1.134   0.714  0.00  0.00    +0.033 C 
BRANCH  21  23
ATOM     23  N   ALA A   1      -0.727  -1.096  -0.260  0.00  0.00    -0.320 NA
ATOM     24  H1  ALA A   1      -0.386  -1.748  -0.968  0.00  0.00    +0.119 HD
ATOM     25  H2  ALA A   1      -0.476  -1.545   0.626  0.00  0.00    +0.119 HD
ENDBRANCH  21  23
ENDBRANCH  17  21
ENDBRANCH  16  18
BRANCH  16  26
ATOM     26  CB  VAL A   2       4.404  -0.325  -2.053  0.00  0.00    +0.012 C 
ATOM     27  CG2 VAL A   2       3.832  -1.747  -2.065  0.00  0.00    +0.009 C 
ATOM     28  CG1 VAL A   2       5.935  -0.413  -2.035  0.00  0.00    +0.009 C 
ENDBRANCH  16  26
ENDBRANCH  12  16
ENDBRANCH  11  14
BRANCH  11  29
ATOM     29  CB  LEU A   3       5.883   4.373   0.989  0.00  0.00    +0.034 C 
BRANCH  29  30
ATOM     30  CG  LEU A   3       4.440   4.915   1.033  0.00  0.00    -0.015 C 
ATOM     31  CD2 LEU A   3       4.189   5.603   2.379  0.00  0.00    +0.007 C 
ATOM     32  CD1 LEU A   3       4.158   5.901  -0.102  0.00  0.00    +0.007 C 
ENDBRANCH  29  30
ENDBRANCH  11  29
ENDBRANCH   7  11
ENDBRANCH   6   8
BRANCH   6  33
ATOM     33  CB  GLN A   4      10.402   3.283  -1.938  0.00  0.00    +0.041 C 
BRANCH  33  34
ATOM     34  CG  GLN A   4      11.902   3.015  -2.045  0.00  0.00    +0.098 C 
BRANCH  34  35
ATOM     35  CD  GLN A   4      12.271   1.928  -3.033  0.00  0.00    +0.211 C 
ATOM     36  OE1 GLN A   4      13.184   1.134  -2.828  0.00  0.00    -0.276 OA
ATOM     37  NE2 GLN A   4      11.611   1.922  -4.223  0.00  0.00    -0.329 N 
ATOM     38 HE21 GLN A   4      10.763   2.440  -4.397  0.00  0.00    +0.145 HD
ATOM     39 HE22 GLN A   4      11.839   1.170  -4.862  0.00  0.00    +0.145 HD
ENDBRANCH  34  35
ENDBRANCH  33  34
ENDBRANCH   6  33
ENDBRANCH   2   6
ENDBRANCH   1   4
BRANCH   1  40
ATOM     40  C   SER A   5      14.092   6.520  -0.326  0.00  0.00    +0.236 C 
ATOM     41  N   GLY A   6      14.956   7.538  -0.637  0.00  0.00    -0.305 N 
ATOM     42  H   GLY A   6      14.623   8.446  -0.948  0.00  0.00    +0.149 HD
ATOM     43  O   SER A   5      14.481   5.380  -0.064  0.00  0.00    -0.274 OA
BRANCH  41  44
ATOM     44  CA  GLY A   6      16.392   7.334  -0.629  0.00  0.00    +0.200 C 
BRANCH  44  45
ATOM     45  C   GLY A   6      17.082   8.673  -0.861  0.00  0.00    +0.231 C 
ATOM     46  O   GLY A   6      16.604   9.536  -1.594  0.00  0.00    -0.274 OA
ATOM     47  N   PHE A   7      18.271   8.826  -0.190  0.00  0.00    -0.302 N 
ATOM     48  H   PHE A   7      18.654   8.065   0.361  0.00  0.00    +0.150 HD
BRANCH  47  49
ATOM     49  CA  PHE A   7      18.965  10.111  -0.127  0.00  0.00    +0.163 C 
BRANCH  49  50
ATOM     50  C   PHE A   7      20.476   9.821  -0.153  0.00  0.00    +0.234 C 
ATOM     51  N   ARG A   8      21.275  10.894  -0.471  0.00  0.00    -0.304 N 
ATOM     52  H   ARG A   8      20.864  11.787  -0.741  0.00  0.00    +0.149 HD
ATOM     53  O   PHE A   7      20.950   8.719   0.129  0.00  0.00    -0.274 OA
BRANCH  51  54
ATOM     54  CA  ARG A   8      22.728  10.789  -0.498  0.00  0.00    +0.136 C 
BRANCH  54  55
ATOM     55  C   ARG A   8      23.283  12.204  -0.419  0.00  0.00    +0.245 C 
ATOM     56  O   ARG A   8      22.662  13.195  -0.797  0.00  0.00    -0.299 OA
ENDBRANCH  54  55
BRANCH  54  57
ATOM     57  CB  ARG A   8      23.211  10.089  -1.775  0.00  0.00    +0.033 C 
BRANCH  57  58
ATOM     58  CG  ARG A   8      24.661   9.606  -1.678  0.00  0.00    +0.039 C 
BRANCH  58  59
ATOM     59  CD  ARG A   8      25.060   8.816  -2.925  0.00  0.00    +0.196 C 
BRANCH  59  60
ATOM     60  NE  ARG A   8      26.439   8.315  -2.816  0.00  0.00    -0.279 N 
ATOM     61  HE  ARG A   8      26.975   8.540  -1.986  0.00  0.00    +0.258 HD
ATOM     62  CZ  ARG A   8      27.039   7.546  -3.741  0.00  0.00    +0.341 C 
ATOM     63  NH2 ARG A   8      28.293   7.132  -3.538  0.00  0.00    -0.292 N 
ATOM     64 HH21 ARG A   8      28.811   7.377  -2.704  0.00  0.00    +0.255 HD
ATOM     65 HH22 ARG A   8      28.772   6.552  -4.215  0.00  0.00    +0.255 HD
ATOM     66  NH1 ARG A   8      26.420   7.181  -4.866  0.00  0.00    -0.292 N 
ATOM     67 HH11 ARG A   8      25.470   7.467  -5.064  0.00  0.00    +0.255 HD
ATOM     68 HH12 ARG A   8      26.874   6.600  -5.558  0.00  0.00    +0.255 HD
ENDBRANCH  59  60
ENDBRANCH  58  59
ENDBRANCH  57  58
ENDBRANCH  54  57
ENDBRANCH  51  54
ENDBRANCH  49  50
BRANCH  49  69
ATOM     69  CB  PHE A   7      18.629  10.891   1.158  0.00  0.00    +0.067 C 
BRANCH  69  70
ATOM     70  CG  PHE A   7      17.163  11.217   1.315  0.00  0.00    -0.045 A 
ATOM     71  CD2 PHE A   7      16.347  10.438   2.149  0.00  0.00    +0.004 A 
ATOM     72  CE2 PHE A   7      14.984  10.714   2.266  0.00  0.00    +0.000 A 
ATOM     73  CZ  PHE A   7      14.424  11.775   1.557  0.00  0.00    +0.000 A 
ATOM     74  CE1 PHE A   7      15.226  12.558   0.728  0.00  0.00    +0.000 A 
ATOM     75  CD1 PHE A   7      16.589  12.280   0.605  0.00  0.00    +0.004 A 
ENDBRANCH  69  70
ENDBRANCH  49  69
ENDBRANCH  47  49
ENDBRANCH  44  45
ENDBRANCH  41  44
ENDBRANCH   1  40
BRANCH   1  76
ATOM     76  CB  SER A   5      12.229   7.889   0.729  0.00  0.00    +0.187 C 
BRANCH  76  77
ATOM     77  OG  SER A   5      12.400   7.343   2.038  0.00  0.00    -0.393 OA
ATOM     78  H   SER A   5      11.841   6.546   2.082  0.00  0.00    +0.209 HD
ENDBRANCH  76  77
ENDBRANCH   1  76
TORSDOF 30
