REMARK  Name = PKLQSSQA-mmff94.pdb
REMARK  35 active torsions:
REMARK  status: ('A' for Active; 'I' for Inactive)
REMARK    1  A    between atoms: _2  and  _3
REMARK    2  A    between atoms: _15  and  _16
REMARK    3  A    between atoms: _16  and  _17
REMARK    4  A    between atoms: _16  and  _19
REMARK    5  A    between atoms: _19  and  _20
REMARK    6  A    between atoms: _20  and  _21
REMARK    7  A    between atoms: _21  and  _22
REMARK    8  A    between atoms: _22  and  _23
REMARK    9  A    between atoms: _37  and  _38
REMARK   10  A    between atoms: _38  and  _39
REMARK   11  A    between atoms: _38  and  _41
REMARK   12  A    between atoms: _41  and  _42
REMARK   13  A    between atoms: _42  and  _43
REMARK   14  A    between atoms: _42  and  _44
REMARK   15  A    between atoms: _56  and  _57
REMARK   16  A    between atoms: _57  and  _58
REMARK   17  A    between atoms: _57  and  _60
REMARK   18  A    between atoms: _60  and  _61
REMARK   19  A    between atoms: _61  and  _62
REMARK   20  A    between atoms: _73  and  _74
REMARK   21  A    between atoms: _74  and  _75
REMARK   22  A    between atoms: _74  and  _77
REMARK   23  A    between atoms: _77  and  _78
REMARK   24  A    between atoms: _84  and  _85
REMARK   25  A    between atoms: _85  and  _86
REMARK   26  A    between atoms: _85  and  _88
REMARK   27  A    between atoms: _88  and  _89
REMARK   28  A    between atoms: _95  and  _96
REMARK   29  A    between atoms: _96  and  _97
REMARK   30  A    between atoms: _96  and  _99
REMARK   31  A    between atoms: _99  and  _100
REMARK   32  A    between atoms: _100  and  _101
REMARK   33  A    between atoms: _112  and  _113
REMARK   34  A    between atoms: _113  and  _114
REMARK   35  A    between atoms: _113  and  _116
REMARK                            x       y       z     vdW  Elec       q    Type
REMARK                         _______ _______ _______ _____ _____    ______ ____
ROOT
ATOM      1  CA  GLN A   4       2.851  11.015  -0.265  0.00  0.00    +0.159 C 
ENDROOT
BRANCH   1   2
ATOM      2  C   GLN A   4       3.377  12.009  -1.321  0.00  0.00    +0.234 C 
ATOM      3  N   SER A   5       3.104  13.331  -1.094  0.00  0.00    -0.301 N 
ATOM      4  H   SER A   5       2.514  13.638  -0.325  0.00  0.00    +0.150 HD
ATOM      5  O   GLN A   4       4.031  11.631  -2.293  0.00  0.00    -0.274 OA
BRANCH   3   6
ATOM      6  CA  SER A   5       3.603  14.396  -1.977  0.00  0.00    +0.184 C 
BRANCH   6   7
ATOM      7  C   SER A   5       3.482  15.728  -1.214  0.00  0.00    +0.236 C 
ATOM      8  O   SER A   5       2.908  15.800  -0.126  0.00  0.00    -0.274 OA
ATOM      9  N   SER A   6       4.099  16.808  -1.796  0.00  0.00    -0.300 N 
ATOM     10  H   SER A   6       4.491  16.743  -2.735  0.00  0.00    +0.150 HD
BRANCH   9  11
ATOM     11  CA  SER A   6       3.925  18.180  -1.299  0.00  0.00    +0.184 C 
BRANCH  11  12
ATOM     12  C   SER A   6       4.431  19.129  -2.401  0.00  0.00    +0.236 C 
ATOM     13  N   GLN A   7       4.131  20.456  -2.230  0.00  0.00    -0.302 N 
ATOM     14  H   GLN A   7       3.600  20.778  -1.424  0.00  0.00    +0.150 HD
ATOM     15  O   SER A   6       5.038  18.702  -3.384  0.00  0.00    -0.274 OA
BRANCH  13  16
ATOM     16  CA  GLN A   7       4.563  21.499  -3.166  0.00  0.00    +0.159 C 
BRANCH  16  17
ATOM     17  C   GLN A   7       4.414  22.831  -2.401  0.00  0.00    +0.234 C 
ATOM     18  O   GLN A   7       3.639  22.947  -1.452  0.00  0.00    -0.274 OA
ATOM     19  N   ALA A   8       5.174  23.871  -2.867  0.00  0.00    -0.305 N 
ATOM     20  H   ALA A   8       5.810  23.746  -3.652  0.00  0.00    +0.149 HD
BRANCH  19  21
ATOM     21  CA  ALA A   8       5.108  25.211  -2.298  0.00  0.00    +0.133 C 
ATOM     22  CB  ALA A   8       5.915  25.325  -1.015  0.00  0.00    +0.035 C 
BRANCH  21  23
ATOM     23  C   ALA A   8       5.652  26.188  -3.331  0.00  0.00    +0.245 C 
ATOM     24  O   ALA A   8       6.135  25.834  -4.406  0.00  0.00    -0.299 OA
ENDBRANCH  21  23
ENDBRANCH  19  21
ENDBRANCH  16  17
BRANCH  16  25
ATOM     25  CB  GLN A   7       3.704  21.476  -4.439  0.00  0.00    +0.041 C 
BRANCH  25  26
ATOM     26  CG  GLN A   7       4.194  22.430  -5.529  0.00  0.00    +0.098 C 
BRANCH  26  27
ATOM     27  CD  GLN A   7       3.686  22.051  -6.902  0.00  0.00    +0.211 C 
ATOM     28  NE2 GLN A   7       2.339  21.903  -7.025  0.00  0.00    -0.329 N 
ATOM     29 HE21 GLN A   7       1.681  22.108  -6.288  0.00  0.00    +0.145 HD
ATOM     30 HE22 GLN A   7       1.980  21.694  -7.948  0.00  0.00    +0.145 HD
ATOM     31  OE1 GLN A   7       4.424  21.916  -7.871  0.00  0.00    -0.276 OA
ENDBRANCH  26  27
ENDBRANCH  25  26
ENDBRANCH  16  25
ENDBRANCH  13  16
ENDBRANCH  11  12
BRANCH  11  32
ATOM     32  CB  SER A   6       4.664  18.420   0.023  0.00  0.00    +0.187 C 
BRANCH  32  33
ATOM     33  OG  SER A   6       6.030  18.010  -0.054  0.00  0.00    -0.393 OA
ATOM     34  H   SER A   6       6.040  17.156  -0.523  0.00  0.00    +0.209 HD
ENDBRANCH  32  33
ENDBRANCH  11  32
ENDBRANCH   9  11
ENDBRANCH   6   7
BRANCH   6  35
ATOM     35  CB  SER A   5       2.853  14.450  -3.315  0.00  0.00    +0.187 C 
BRANCH  35  36
ATOM     36  OG  SER A   5       1.444  14.572  -3.118  0.00  0.00    -0.393 OA
ATOM     37  H   SER A   5       1.130  13.715  -2.783  0.00  0.00    +0.209 HD
ENDBRANCH  35  36
ENDBRANCH   6  35
ENDBRANCH   3   6
ENDBRANCH   1   2
BRANCH   1  40
ATOM     38  C   LEU A   3       2.101   8.645  -0.417  0.00  0.00    +0.234 C 
ATOM     39  O   LEU A   3       1.484   8.712   0.649  0.00  0.00    -0.274 OA
ATOM     40  N   GLN A   4       2.785   9.716  -0.936  0.00  0.00    -0.302 N 
ATOM     41  H   GLN A   4       3.335   9.616  -1.788  0.00  0.00    +0.150 HD
BRANCH  38  42
ATOM     42  CA  LEU A   3       2.186   7.343  -1.248  0.00  0.00    +0.159 C 
BRANCH  42  44
ATOM     43  C   LYS A   2       2.208   5.088  -0.189  0.00  0.00    +0.234 C 
ATOM     44  N   LEU A   3       1.592   6.293  -0.425  0.00  0.00    -0.302 N 
ATOM     45  H   LEU A   3       0.796   6.569   0.141  0.00  0.00    +0.150 HD
ATOM     46  O   LYS A   2       3.231   4.725  -0.766  0.00  0.00    -0.274 OA
BRANCH  43  47
ATOM     47  CA  LYS A   2       1.549   4.241   0.915  0.00  0.00    +0.159 C 
BRANCH  47  50
ATOM     48  C   PRO A   1       0.832   1.882   1.054  0.00  0.00    +0.231 C 
ATOM     49  O   PRO A   1       0.007   2.134   1.935  0.00  0.00    -0.274 OA
ATOM     50  N   LYS A   2       1.645   2.846   0.511  0.00  0.00    -0.303 N 
ATOM     51  H   LYS A   2       2.362   2.596  -0.164  0.00  0.00    +0.149 HD
BRANCH  48  57
ATOM     52  N   PRO A   1       0.381  -0.536   1.341  0.00  0.00    -0.306 NA
ATOM     53  H   PRO A   1      -0.150  -0.016   2.050  0.00  0.00    +0.123 HD
ATOM     54  CD  PRO A   1      -0.573  -1.292   0.522  0.00  0.00    +0.081 C 
ATOM     55  CG  PRO A   1      -0.988  -0.338  -0.578  0.00  0.00    +0.017 C 
ATOM     56  CB  PRO A   1       0.309   0.376  -0.901  0.00  0.00    +0.029 C 
ATOM     57  CA  PRO A   1       1.009   0.475   0.451  0.00  0.00    +0.140 C 
ENDBRANCH  48  57
ENDBRANCH  47  50
BRANCH  47  58
ATOM     58  CB  LYS A   2       2.246   4.483   2.267  0.00  0.00    +0.032 C 
BRANCH  58  59
ATOM     59  CG  LYS A   2       2.079   5.920   2.766  0.00  0.00    +0.007 C 
BRANCH  59  60
ATOM     60  CD  LYS A   2       2.692   6.145   4.149  0.00  0.00    +0.051 C 
BRANCH  60  61
ATOM     61  CE  LYS A   2       2.592   7.622   4.513  0.00  0.00    +0.127 C 
BRANCH  61  62
ATOM     62  NZ  LYS A   2       3.242   7.867   5.817  0.00  0.00    +0.219 N 
ATOM     63  HZ1 LYS A   2       2.748   7.409   6.593  0.00  0.00    +0.199 HD
ATOM     64  HZ2 LYS A   2       3.258   8.883   5.995  0.00  0.00    +0.199 HD
ATOM     65  HZ3 LYS A   2       4.219   7.553   5.820  0.00  0.00    +0.199 HD
ENDBRANCH  61  62
ENDBRANCH  60  61
ENDBRANCH  59  60
ENDBRANCH  58  59
ENDBRANCH  47  58
ENDBRANCH  43  47
ENDBRANCH  42  44
BRANCH  42  66
ATOM     66  CB  LEU A   3       1.450   7.491  -2.586  0.00  0.00    +0.034 C 
BRANCH  66  67
ATOM     67  CG  LEU A   3       1.606   6.285  -3.536  0.00  0.00    -0.015 C 
ATOM     68  CD2 LEU A   3       3.046   6.116  -4.024  0.00  0.00    +0.007 C 
ATOM     69  CD1 LEU A   3       0.676   6.450  -4.741  0.00  0.00    +0.007 C 
ENDBRANCH  66  67
ENDBRANCH  42  66
ENDBRANCH  38  42
ENDBRANCH   1  40
BRANCH   1  70
ATOM     70  CB  GLN A   4       3.788  10.941   0.950  0.00  0.00    +0.041 C 
BRANCH  70  71
ATOM     71  CG  GLN A   4       3.434  11.937   2.052  0.00  0.00    +0.098 C 
BRANCH  71  72
ATOM     72  CD  GLN A   4       4.184  11.581   3.322  0.00  0.00    +0.211 C 
ATOM     73  OE1 GLN A   4       3.812  10.718   4.117  0.00  0.00    -0.276 OA
ATOM     74  NE2 GLN A   4       5.368  12.235   3.487  0.00  0.00    -0.329 N 
ATOM     75 HE21 GLN A   4       5.907  12.075   4.329  0.00  0.00    +0.145 HD
ATOM     76 HE22 GLN A   4       5.653  13.013   2.903  0.00  0.00    +0.145 HD
ENDBRANCH  71  72
ENDBRANCH  70  71
ENDBRANCH   1  70
TORSDOF 32
