MODEL 1
REMARK VINA RESULT:      -6.3      0.000      0.000
REMARK  Name = PKLQSSQA-mmff94.pdb
REMARK  35 active torsions:
REMARK  status: ('A' for Active; 'I' for Inactive)
REMARK    1  A    between atoms: _2  and  _3
REMARK    2  A    between atoms: _15  and  _16
REMARK    3  A    between atoms: _16  and  _17
REMARK    4  A    between atoms: _16  and  _19
REMARK    5  A    between atoms: _19  and  _20
REMARK    6  A    between atoms: _20  and  _21
REMARK    7  A    between atoms: _21  and  _22
REMARK    8  A    between atoms: _22  and  _23
REMARK    9  A    between atoms: _37  and  _38
REMARK   10  A    between atoms: _38  and  _39
REMARK   11  A    between atoms: _38  and  _41
REMARK   12  A    between atoms: _41  and  _42
REMARK   13  A    between atoms: _42  and  _43
REMARK   14  A    between atoms: _42  and  _44
REMARK   15  A    between atoms: _56  and  _57
REMARK   16  A    between atoms: _57  and  _58
REMARK   17  A    between atoms: _57  and  _60
REMARK   18  A    between atoms: _60  and  _61
REMARK   19  A    between atoms: _61  and  _62
REMARK   20  A    between atoms: _73  and  _74
REMARK   21  A    between atoms: _74  and  _75
REMARK   22  A    between atoms: _74  and  _77
REMARK   23  A    between atoms: _77  and  _78
REMARK   24  A    between atoms: _84  and  _85
REMARK   25  A    between atoms: _85  and  _86
REMARK   26  A    between atoms: _85  and  _88
REMARK   27  A    between atoms: _88  and  _89
REMARK   28  A    between atoms: _95  and  _96
REMARK   29  A    between atoms: _96  and  _97
REMARK   30  A    between atoms: _96  and  _99
REMARK   31  A    between atoms: _99  and  _100
REMARK   32  A    between atoms: _100  and  _101
REMARK   33  A    between atoms: _112  and  _113
REMARK   34  A    between atoms: _113  and  _114
REMARK   35  A    between atoms: _113  and  _116
REMARK                            x       y       z     vdW  Elec       q    Type
REMARK                         _______ _______ _______ _____ _____    ______ ____
ROOT
ATOM      1  CA  GLN A   4       7.161  -2.281  22.496  0.00  0.00    +0.159 C 
ENDROOT
BRANCH   1   2
ATOM      2  C   GLN A   4       6.531  -1.658  21.234  0.00  0.00    +0.234 C 
ATOM      3  N   SER A   5       7.058  -0.464  20.822  0.00  0.00    -0.301 N 
ATOM      4  H   SER A   5       7.763   0.032  21.363  0.00  0.00    +0.150 HD
ATOM      5  O   GLN A   4       5.627  -2.223  20.618  0.00  0.00    -0.274 OA
BRANCH   3   6
ATOM      6  CA  SER A   5       6.606   0.211  19.596  0.00  0.00    +0.184 C 
BRANCH   6   7
ATOM      7  C   SER A   5       5.771   1.433  20.019  0.00  0.00    +0.236 C 
ATOM      8  O   SER A   5       4.818   1.829  19.345  0.00  0.00    -0.274 OA
ATOM      9  N   SER A   6       6.121   2.012  21.213  0.00  0.00    -0.300 N 
ATOM     10  H   SER A   6       6.965   1.722  21.708  0.00  0.00    +0.150 HD
BRANCH   9  11
ATOM     11  CA  SER A   6       5.552   3.288  21.670  0.00  0.00    +0.184 C 
BRANCH  11  12
ATOM     12  C   SER A   6       6.642   4.003  22.490  0.00  0.00    +0.236 C 
ATOM     13  N   GLN A   7       6.896   3.478  23.731  0.00  0.00    -0.302 N 
ATOM     14  H   GLN A   7       6.383   2.671  24.079  0.00  0.00    +0.150 HD
ATOM     15  O   SER A   6       7.218   5.002  22.056  0.00  0.00    -0.274 OA
BRANCH  13  16
ATOM     16  CA  GLN A   7       7.923   4.015  24.630  0.00  0.00    +0.159 C 
BRANCH  16  17
ATOM     17  C   GLN A   7       9.241   3.333  24.209  0.00  0.00    +0.234 C 
ATOM     18  O   GLN A   7      10.237   3.988  23.903  0.00  0.00    -0.274 OA
ATOM     19  N   ALA A   8       9.215   1.964  24.169  0.00  0.00    -0.305 N 
ATOM     20  H   ALA A   8       8.378   1.447  24.431  0.00  0.00    +0.149 HD
BRANCH  19  21
ATOM     21  CA  ALA A   8      10.355   1.167  23.734  0.00  0.00    +0.133 C 
ATOM     22  CB  ALA A   8      10.493  -0.115  24.539  0.00  0.00    +0.035 C 
BRANCH  21  23
ATOM     23  C   ALA A   8      10.157   0.827  22.263  0.00  0.00    +0.245 C 
ATOM     24  O   ALA A   8       9.984  -0.320  21.853  0.00  0.00    -0.299 OA
ENDBRANCH  21  23
ENDBRANCH  19  21
ENDBRANCH  16  17
BRANCH  16  25
ATOM     25  CB  GLN A   7       7.572   3.716  26.095  0.00  0.00    +0.041 C 
BRANCH  25  26
ATOM     26  CG  GLN A   7       6.680   4.776  26.743  0.00  0.00    +0.098 C 
BRANCH  26  27
ATOM     27  CD  GLN A   7       5.234   4.344  26.828  0.00  0.00    +0.211 C 
ATOM     28  NE2 GLN A   7       4.655   4.418  28.058  0.00  0.00    -0.329 N 
ATOM     29 HE21 GLN A   7       5.107   4.813  28.869  0.00  0.00    +0.145 HD
ATOM     30 HE22 GLN A   7       3.675   4.175  28.122  0.00  0.00    +0.145 HD
ATOM     31  OE1 GLN A   7       4.590   3.979  25.852  0.00  0.00    -0.276 OA
ENDBRANCH  26  27
ENDBRANCH  25  26
ENDBRANCH  16  25
ENDBRANCH  13  16
ENDBRANCH  11  12
BRANCH  11  32
ATOM     32  CB  SER A   6       4.274   3.095  22.495  0.00  0.00    +0.187 C 
BRANCH  32  33
ATOM     33  OG  SER A   6       4.454   2.127  23.529  0.00  0.00    -0.393 OA
ATOM     34  H   SER A   6       4.039   1.302  23.216  0.00  0.00    +0.209 HD
ENDBRANCH  32  33
ENDBRANCH  11  32
ENDBRANCH   9  11
ENDBRANCH   6   7
BRANCH   6  35
ATOM     35  CB  SER A   5       5.806  -0.719  18.674  0.00  0.00    +0.187 C 
BRANCH  35  36
ATOM     36  OG  SER A   5       5.503  -0.086  17.431  0.00  0.00    -0.393 OA
ATOM     37  H   SER A   5       6.136   0.644  17.324  0.00  0.00    +0.209 HD
ENDBRANCH  35  36
ENDBRANCH   6  35
ENDBRANCH   3   6
ENDBRANCH   1   2
BRANCH   1  40
ATOM     38  C   LEU A   3       6.213  -0.687  24.158  0.00  0.00    +0.234 C 
ATOM     39  O   LEU A   3       6.917   0.242  23.754  0.00  0.00    -0.274 OA
ATOM     40  N   GLN A   4       6.264  -1.940  23.601  0.00  0.00    -0.302 N 
ATOM     41  H   GLN A   4       5.715  -2.704  23.994  0.00  0.00    +0.150 HD
BRANCH  38  42
ATOM     42  CA  LEU A   3       5.236  -0.533  25.348  0.00  0.00    +0.159 C 
BRANCH  42  44
ATOM     43  C   LYS A   2       4.144  -2.644  26.092  0.00  0.00    +0.234 C 
ATOM     44  N   LEU A   3       5.238  -1.815  26.047  0.00  0.00    -0.302 N 
ATOM     45  H   LEU A   3       6.148  -2.169  26.324  0.00  0.00    +0.150 HD
ATOM     46  O   LYS A   2       3.030  -2.320  25.686  0.00  0.00    -0.274 OA
BRANCH  43  47
ATOM     47  CA  LYS A   2       4.435  -4.054  26.638  0.00  0.00    +0.159 C 
BRANCH  47  50
ATOM     48  C   PRO A   1       6.579  -5.280  26.631  0.00  0.00    +0.231 C 
ATOM     49  O   PRO A   1       6.046  -6.307  26.204  0.00  0.00    -0.274 OA
ATOM     50  N   LYS A   2       5.866  -4.137  26.892  0.00  0.00    -0.303 N 
ATOM     51  H   LYS A   2       6.321  -3.329  27.307  0.00  0.00    +0.149 HD
BRANCH  48  57
ATOM     52  N   PRO A   1       8.833  -5.949  25.853  0.00  0.00    -0.306 NA
ATOM     53  H   PRO A   1       8.144  -6.234  25.147  0.00  0.00    +0.123 HD
ATOM     54  CD  PRO A   1       9.783  -5.030  25.216  0.00  0.00    +0.081 C 
ATOM     55  CG  PRO A   1       9.159  -3.658  25.360  0.00  0.00    +0.017 C 
ATOM     56  CB  PRO A   1       8.555  -3.716  26.749  0.00  0.00    +0.029 C 
ATOM     57  CA  PRO A   1       8.096  -5.165  26.878  0.00  0.00    +0.140 C 
ENDBRANCH  48  57
ENDBRANCH  47  50
BRANCH  47  58
ATOM     58  CB  LYS A   2       3.621  -4.315  27.919  0.00  0.00    +0.032 C 
BRANCH  58  59
ATOM     59  CG  LYS A   2       2.515  -5.352  27.712  0.00  0.00    +0.007 C 
BRANCH  59  60
ATOM     60  CD  LYS A   2       3.012  -6.790  27.859  0.00  0.00    +0.051 C 
BRANCH  60  61
ATOM     61  CE  LYS A   2       3.875  -6.902  29.112  0.00  0.00    +0.127 C 
BRANCH  61  62
ATOM     62  NZ  LYS A   2       5.178  -7.512  28.776  0.00  0.00    +0.219 N 
ATOM     63  HZ1 LYS A   2       5.081  -8.467  28.409  0.00  0.00    +0.199 HD
ATOM     64  HZ2 LYS A   2       5.758  -7.547  29.628  0.00  0.00    +0.199 HD
ATOM     65  HZ3 LYS A   2       5.696  -6.949  28.091  0.00  0.00    +0.199 HD
ENDBRANCH  61  62
ENDBRANCH  60  61
ENDBRANCH  59  60
ENDBRANCH  58  59
ENDBRANCH  47  58
ENDBRANCH  43  47
ENDBRANCH  42  44
BRANCH  42  66
ATOM     66  CB  LEU A   3       5.667   0.612  26.274  0.00  0.00    +0.034 C 
BRANCH  66  67
ATOM     67  CG  LEU A   3       6.322   0.152  27.593  0.00  0.00    -0.015 C 
ATOM     68  CD2 LEU A   3       5.990   1.086  28.759  0.00  0.00    +0.007 C 
ATOM     69  CD1 LEU A   3       7.841   0.075  27.419  0.00  0.00    +0.007 C 
ENDBRANCH  66  67
ENDBRANCH  42  66
ENDBRANCH  38  42
ENDBRANCH   1  40
BRANCH   1  70
ATOM     70  CB  GLN A   4       7.289  -3.806  22.364  0.00  0.00    +0.041 C 
BRANCH  70  71
ATOM     71  CG  GLN A   4       6.315  -4.577  23.252  0.00  0.00    +0.098 C 
BRANCH  71  72
ATOM     72  CD  GLN A   4       5.638  -5.667  22.442  0.00  0.00    +0.211 C 
ATOM     73  OE1 GLN A   4       5.659  -5.718  21.212  0.00  0.00    -0.276 OA
ATOM     74  NE2 GLN A   4       5.064  -6.656  23.184  0.00  0.00    -0.329 N 
ATOM     75 HE21 GLN A   4       4.563  -7.398  22.712  0.00  0.00    +0.145 HD
ATOM     76 HE22 GLN A   4       4.949  -6.593  24.189  0.00  0.00    +0.145 HD
ENDBRANCH  71  72
ENDBRANCH  70  71
ENDBRANCH   1  70
TORSDOF 32
ENDMDL
MODEL 2
REMARK VINA RESULT:      -5.8      1.307      2.318
REMARK  Name = PKLQSSQA-mmff94.pdb
REMARK  35 active torsions:
REMARK  status: ('A' for Active; 'I' for Inactive)
REMARK    1  A    between atoms: _2  and  _3
REMARK    2  A    between atoms: _15  and  _16
REMARK    3  A    between atoms: _16  and  _17
REMARK    4  A    between atoms: _16  and  _19
REMARK    5  A    between atoms: _19  and  _20
REMARK    6  A    between atoms: _20  and  _21
REMARK    7  A    between atoms: _21  and  _22
REMARK    8  A    between atoms: _22  and  _23
REMARK    9  A    between atoms: _37  and  _38
REMARK   10  A    between atoms: _38  and  _39
REMARK   11  A    between atoms: _38  and  _41
REMARK   12  A    between atoms: _41  and  _42
REMARK   13  A    between atoms: _42  and  _43
REMARK   14  A    between atoms: _42  and  _44
REMARK   15  A    between atoms: _56  and  _57
REMARK   16  A    between atoms: _57  and  _58
REMARK   17  A    between atoms: _57  and  _60
REMARK   18  A    between atoms: _60  and  _61
REMARK   19  A    between atoms: _61  and  _62
REMARK   20  A    between atoms: _73  and  _74
REMARK   21  A    between atoms: _74  and  _75
REMARK   22  A    between atoms: _74  and  _77
REMARK   23  A    between atoms: _77  and  _78
REMARK   24  A    between atoms: _84  and  _85
REMARK   25  A    between atoms: _85  and  _86
REMARK   26  A    between atoms: _85  and  _88
REMARK   27  A    between atoms: _88  and  _89
REMARK   28  A    between atoms: _95  and  _96
REMARK   29  A    between atoms: _96  and  _97
REMARK   30  A    between atoms: _96  and  _99
REMARK   31  A    between atoms: _99  and  _100
REMARK   32  A    between atoms: _100  and  _101
REMARK   33  A    between atoms: _112  and  _113
REMARK   34  A    between atoms: _113  and  _114
REMARK   35  A    between atoms: _113  and  _116
REMARK                            x       y       z     vdW  Elec       q    Type
REMARK                         _______ _______ _______ _____ _____    ______ ____
ROOT
ATOM      1  CA  GLN A   4       8.623  -1.367  24.006  0.00  0.00    +0.159 C 
ENDROOT
BRANCH   1   2
ATOM      2  C   GLN A   4       8.459  -1.170  22.485  0.00  0.00    +0.234 C 
ATOM      3  N   SER A   5       7.378  -0.432  22.085  0.00  0.00    -0.301 N 
ATOM      4  H   SER A   5       6.672  -0.106  22.740  0.00  0.00    +0.150 HD
ATOM      5  O   GLN A   4       9.275  -1.627  21.684  0.00  0.00    -0.274 OA
BRANCH   3   6
ATOM      6  CA  SER A   5       7.134  -0.103  20.673  0.00  0.00    +0.184 C 
BRANCH   6   7
ATOM      7  C   SER A   5       6.310   1.197  20.633  0.00  0.00    +0.236 C 
ATOM      8  O   SER A   5       5.787   1.600  19.593  0.00  0.00    -0.274 OA
ATOM      9  N   SER A   6       6.154   1.842  21.836  0.00  0.00    -0.300 N 
ATOM     10  H   SER A   6       6.666   1.538  22.663  0.00  0.00    +0.150 HD
BRANCH   9  11
ATOM     11  CA  SER A   6       5.559   3.181  21.943  0.00  0.00    +0.184 C 
BRANCH  11  12
ATOM     12  C   SER A   6       6.563   4.064  22.707  0.00  0.00    +0.236 C 
ATOM     13  N   GLN A   7       6.768   3.732  24.022  0.00  0.00    -0.302 N 
ATOM     14  H   GLN A   7       6.275   2.954  24.454  0.00  0.00    +0.150 HD
ATOM     15  O   SER A   6       7.113   5.023  22.165  0.00  0.00    -0.274 OA
BRANCH  13  16
ATOM     16  CA  GLN A   7       7.713   4.446  24.887  0.00  0.00    +0.159 C 
BRANCH  16  17
ATOM     17  C   GLN A   7       9.117   4.026  24.402  0.00  0.00    +0.234 C 
ATOM     18  O   GLN A   7       9.971   4.859  24.098  0.00  0.00    -0.274 OA
ATOM     19  N   ALA A   8       9.333   2.677  24.308  0.00  0.00    -0.305 N 
ATOM     20  H   ALA A   8       8.611   2.010  24.571  0.00  0.00    +0.149 HD
BRANCH  19  21
ATOM     21  CA  ALA A   8      10.582   2.113  23.811  0.00  0.00    +0.133 C 
ATOM     22  CB  ALA A   8      10.967   0.842  24.551  0.00  0.00    +0.035 C 
BRANCH  21  23
ATOM     23  C   ALA A   8      10.402   1.805  22.331  0.00  0.00    +0.245 C 
ATOM     24  O   ALA A   8       9.364   2.040  21.714  0.00  0.00    -0.299 OA
ENDBRANCH  21  23
ENDBRANCH  19  21
ENDBRANCH  16  17
BRANCH  16  25
ATOM     25  CB  GLN A   7       7.487   4.077  26.360  0.00  0.00    +0.041 C 
BRANCH  25  26
ATOM     26  CG  GLN A   7       6.445   4.951  27.060  0.00  0.00    +0.098 C 
BRANCH  26  27
ATOM     27  CD  GLN A   7       5.078   4.306  27.097  0.00  0.00    +0.211 C 
ATOM     28  NE2 GLN A   7       4.587   4.007  28.331  0.00  0.00    -0.329 N 
ATOM     29 HE21 GLN A   7       5.042   4.263  29.194  0.00  0.00    +0.145 HD
ATOM     30 HE22 GLN A   7       3.655   3.617  28.374  0.00  0.00    +0.145 HD
ATOM     31  OE1 GLN A   7       4.417   4.088  26.089  0.00  0.00    -0.276 OA
ENDBRANCH  26  27
ENDBRANCH  25  26
ENDBRANCH  16  25
ENDBRANCH  13  16
ENDBRANCH  11  12
BRANCH  11  32
ATOM     32  CB  SER A   6       4.194   3.159  22.641  0.00  0.00    +0.187 C 
BRANCH  32  33
ATOM     33  OG  SER A   6       3.895   4.414  23.254  0.00  0.00    -0.393 OA
ATOM     34  H   SER A   6       4.545   4.540  23.968  0.00  0.00    +0.209 HD
ENDBRANCH  32  33
ENDBRANCH  11  32
ENDBRANCH   9  11
ENDBRANCH   6   7
BRANCH   6  35
ATOM     35  CB  SER A   5       6.423  -1.236  19.919  0.00  0.00    +0.187 C 
BRANCH  35  36
ATOM     36  OG  SER A   5       5.023  -0.985  19.802  0.00  0.00    -0.393 OA
ATOM     37  H   SER A   5       4.591  -1.847  19.671  0.00  0.00    +0.209 HD
ENDBRANCH  35  36
ENDBRANCH   6  35
ENDBRANCH   3   6
ENDBRANCH   1   2
BRANCH   1  40
ATOM     38  C   LEU A   3       6.652  -0.163  24.938  0.00  0.00    +0.234 C 
ATOM     39  O   LEU A   3       7.197   0.937  24.820  0.00  0.00    -0.274 OA
ATOM     40  N   GLN A   4       7.269  -1.330  24.562  0.00  0.00    -0.302 N 
ATOM     41  H   GLN A   4       6.820  -2.230  24.726  0.00  0.00    +0.150 HD
BRANCH  38  42
ATOM     42  CA  LEU A   3       5.241  -0.331  25.549  0.00  0.00    +0.159 C 
BRANCH  42  44
ATOM     43  C   LYS A   2       3.934  -2.386  26.073  0.00  0.00    +0.234 C 
ATOM     44  N   LEU A   3       5.134  -1.729  25.955  0.00  0.00    -0.302 N 
ATOM     45  H   LEU A   3       5.999  -2.261  25.946  0.00  0.00    +0.150 HD
ATOM     46  O   LYS A   2       2.843  -1.823  25.998  0.00  0.00    -0.274 OA
BRANCH  43  47
ATOM     47  CA  LYS A   2       4.055  -3.911  26.242  0.00  0.00    +0.159 C 
BRANCH  47  50
ATOM     48  C   PRO A   1       4.932  -5.424  24.498  0.00  0.00    +0.231 C 
ATOM     49  O   PRO A   1       3.881  -6.068  24.459  0.00  0.00    -0.274 OA
ATOM     50  N   LYS A   2       5.115  -4.366  25.354  0.00  0.00    -0.303 N 
ATOM     51  H   LYS A   2       6.015  -3.898  25.411  0.00  0.00    +0.149 HD
BRANCH  48  57
ATOM     52  N   PRO A   1       5.692  -6.591  22.450  0.00  0.00    -0.306 NA
ATOM     53  H   PRO A   1       4.667  -6.643  22.498  0.00  0.00    +0.123 HD
ATOM     54  CD  PRO A   1       6.055  -5.904  21.205  0.00  0.00    +0.081 C 
ATOM     55  CG  PRO A   1       6.058  -4.432  21.556  0.00  0.00    +0.017 C 
ATOM     56  CB  PRO A   1       6.655  -4.426  22.949  0.00  0.00    +0.029 C 
ATOM     57  CA  PRO A   1       6.127  -5.716  23.570  0.00  0.00    +0.140 C 
ENDBRANCH  48  57
ENDBRANCH  47  50
BRANCH  47  58
ATOM     58  CB  LYS A   2       4.361  -4.267  27.709  0.00  0.00    +0.032 C 
BRANCH  58  59
ATOM     59  CG  LYS A   2       3.407  -5.324  28.269  0.00  0.00    +0.007 C 
BRANCH  59  60
ATOM     60  CD  LYS A   2       3.985  -6.068  29.474  0.00  0.00    +0.051 C 
BRANCH  60  61
ATOM     61  CE  LYS A   2       5.480  -6.284  29.267  0.00  0.00    +0.127 C 
BRANCH  61  62
ATOM     62  NZ  LYS A   2       5.711  -7.535  28.516  0.00  0.00    +0.219 N 
ATOM     63  HZ1 LYS A   2       5.835  -8.346  29.135  0.00  0.00    +0.199 HD
ATOM     64  HZ2 LYS A   2       6.564  -7.427  27.946  0.00  0.00    +0.199 HD
ATOM     65  HZ3 LYS A   2       4.945  -7.734  27.864  0.00  0.00    +0.199 HD
ENDBRANCH  61  62
ENDBRANCH  60  61
ENDBRANCH  59  60
ENDBRANCH  58  59
ENDBRANCH  47  58
ENDBRANCH  43  47
ENDBRANCH  42  44
BRANCH  42  66
ATOM     66  CB  LEU A   3       5.036   0.617  26.738  0.00  0.00    +0.034 C 
BRANCH  66  67
ATOM     67  CG  LEU A   3       5.675   0.132  28.056  0.00  0.00    -0.015 C 
ATOM     68  CD2 LEU A   3       4.649   0.010  29.185  0.00  0.00    +0.007 C 
ATOM     69  CD1 LEU A   3       6.785   1.097  28.480  0.00  0.00    +0.007 C 
ENDBRANCH  66  67
ENDBRANCH  42  66
ENDBRANCH  38  42
ENDBRANCH   1  40
BRANCH   1  70
ATOM     70  CB  GLN A   4       9.295  -2.711  24.328  0.00  0.00    +0.041 C 
BRANCH  70  71
ATOM     71  CG  GLN A   4       8.809  -3.337  25.633  0.00  0.00    +0.098 C 
BRANCH  71  72
ATOM     72  CD  GLN A   4       9.242  -4.789  25.695  0.00  0.00    +0.211 C 
ATOM     73  OE1 GLN A   4      10.257  -5.224  25.151  0.00  0.00    -0.276 OA
ATOM     74  NE2 GLN A   4       8.461  -5.584  26.480  0.00  0.00    -0.329 N 
ATOM     75 HE21 GLN A   4       8.668  -6.573  26.541  0.00  0.00    +0.145 HD
ATOM     76 HE22 GLN A   4       7.573  -5.279  26.861  0.00  0.00    +0.145 HD
ENDBRANCH  71  72
ENDBRANCH  70  71
ENDBRANCH   1  70
TORSDOF 32
ENDMDL
MODEL 3
REMARK VINA RESULT:      -5.7      2.229      8.274
REMARK  Name = PKLQSSQA-mmff94.pdb
REMARK  35 active torsions:
REMARK  status: ('A' for Active; 'I' for Inactive)
REMARK    1  A    between atoms: _2  and  _3
REMARK    2  A    between atoms: _15  and  _16
REMARK    3  A    between atoms: _16  and  _17
REMARK    4  A    between atoms: _16  and  _19
REMARK    5  A    between atoms: _19  and  _20
REMARK    6  A    between atoms: _20  and  _21
REMARK    7  A    between atoms: _21  and  _22
REMARK    8  A    between atoms: _22  and  _23
REMARK    9  A    between atoms: _37  and  _38
REMARK   10  A    between atoms: _38  and  _39
REMARK   11  A    between atoms: _38  and  _41
REMARK   12  A    between atoms: _41  and  _42
REMARK   13  A    between atoms: _42  and  _43
REMARK   14  A    between atoms: _42  and  _44
REMARK   15  A    between atoms: _56  and  _57
REMARK   16  A    between atoms: _57  and  _58
REMARK   17  A    between atoms: _57  and  _60
REMARK   18  A    between atoms: _60  and  _61
REMARK   19  A    between atoms: _61  and  _62
REMARK   20  A    between atoms: _73  and  _74
REMARK   21  A    between atoms: _74  and  _75
REMARK   22  A    between atoms: _74  and  _77
REMARK   23  A    between atoms: _77  and  _78
REMARK   24  A    between atoms: _84  and  _85
REMARK   25  A    between atoms: _85  and  _86
REMARK   26  A    between atoms: _85  and  _88
REMARK   27  A    between atoms: _88  and  _89
REMARK   28  A    between atoms: _95  and  _96
REMARK   29  A    between atoms: _96  and  _97
REMARK   30  A    between atoms: _96  and  _99
REMARK   31  A    between atoms: _99  and  _100
REMARK   32  A    between atoms: _100  and  _101
REMARK   33  A    between atoms: _112  and  _113
REMARK   34  A    between atoms: _113  and  _114
REMARK   35  A    between atoms: _113  and  _116
REMARK                            x       y       z     vdW  Elec       q    Type
REMARK                         _______ _______ _______ _____ _____    ______ ____
ROOT
ATOM      1  CA  GLN A   4       7.849  -0.969  21.465  0.00  0.00    +0.159 C 
ENDROOT
BRANCH   1   2
ATOM      2  C   GLN A   4       6.981  -1.938  22.295  0.00  0.00    +0.234 C 
ATOM      3  N   SER A   5       7.018  -3.254  21.919  0.00  0.00    -0.301 N 
ATOM      4  H   SER A   5       7.515  -3.566  21.089  0.00  0.00    +0.150 HD
ATOM      5  O   GLN A   4       6.320  -1.548  23.257  0.00  0.00    -0.274 OA
BRANCH   3   6
ATOM      6  CA  SER A   5       6.298  -4.300  22.661  0.00  0.00    +0.184 C 
BRANCH   6   7
ATOM      7  C   SER A   5       7.273  -4.891  23.695  0.00  0.00    +0.236 C 
ATOM      8  O   SER A   5       8.321  -5.444  23.355  0.00  0.00    -0.274 OA
ATOM      9  N   SER A   6       6.927  -4.714  25.012  0.00  0.00    -0.300 N 
ATOM     10  H   SER A   6       6.016  -4.332  25.267  0.00  0.00    +0.150 HD
BRANCH   9  11
ATOM     11  CA  SER A   6       7.644  -5.371  26.114  0.00  0.00    +0.184 C 
BRANCH  11  12
ATOM     12  C   SER A   6       6.710  -5.353  27.338  0.00  0.00    +0.236 C 
ATOM     13  N   GLN A   7       5.524  -4.685  27.174  0.00  0.00    -0.302 N 
ATOM     14  H   GLN A   7       5.291  -4.229  26.294  0.00  0.00    +0.150 HD
ATOM     15  O   SER A   6       7.038  -5.882  28.401  0.00  0.00    -0.274 OA
BRANCH  13  16
ATOM     16  CA  GLN A   7       4.505  -4.598  28.225  0.00  0.00    +0.159 C 
BRANCH  16  17
ATOM     17  C   GLN A   7       3.237  -5.245  27.630  0.00  0.00    +0.234 C 
ATOM     18  O   GLN A   7       2.240  -5.463  28.318  0.00  0.00    -0.274 OA
ATOM     19  N   ALA A   8       3.310  -5.582  26.304  0.00  0.00    -0.305 N 
ATOM     20  H   ALA A   8       4.146  -5.387  25.758  0.00  0.00    +0.149 HD
BRANCH  19  21
ATOM     21  CA  ALA A   8       2.224  -6.256  25.603  0.00  0.00    +0.133 C 
ATOM     22  CB  ALA A   8       1.878  -5.566  24.293  0.00  0.00    +0.035 C 
BRANCH  21  23
ATOM     23  C   ALA A   8       2.661  -7.688  25.325  0.00  0.00    +0.245 C 
ATOM     24  O   ALA A   8       3.330  -8.011  24.344  0.00  0.00    -0.299 OA
ENDBRANCH  21  23
ENDBRANCH  19  21
ENDBRANCH  16  17
BRANCH  16  25
ATOM     25  CB  GLN A   7       4.262  -3.135  28.625  0.00  0.00    +0.041 C 
BRANCH  25  26
ATOM     26  CG  GLN A   7       3.455  -2.342  27.596  0.00  0.00    +0.098 C 
BRANCH  26  27
ATOM     27  CD  GLN A   7       4.206  -2.142  26.299  0.00  0.00    +0.211 C 
ATOM     28  NE2 GLN A   7       5.298  -1.331  26.356  0.00  0.00    -0.329 N 
ATOM     29 HE21 GLN A   7       5.663  -0.938  27.210  0.00  0.00    +0.145 HD
ATOM     30 HE22 GLN A   7       5.837  -1.224  25.506  0.00  0.00    +0.145 HD
ATOM     31  OE1 GLN A   7       3.890  -2.698  25.254  0.00  0.00    -0.276 OA
ENDBRANCH  26  27
ENDBRANCH  25  26
ENDBRANCH  16  25
ENDBRANCH  13  16
ENDBRANCH  11  12
BRANCH  11  32
ATOM     32  CB  SER A   6       8.983  -4.691  26.426  0.00  0.00    +0.187 C 
BRANCH  32  33
ATOM     33  OG  SER A   6      10.072  -5.347  25.776  0.00  0.00    -0.393 OA
ATOM     34  H   SER A   6       9.783  -5.531  24.864  0.00  0.00    +0.209 HD
ENDBRANCH  32  33
ENDBRANCH  11  32
ENDBRANCH   9  11
ENDBRANCH   6   7
BRANCH   6  35
ATOM     35  CB  SER A   5       5.733  -5.391  21.740  0.00  0.00    +0.187 C 
BRANCH  35  36
ATOM     36  OG  SER A   5       4.866  -6.275  22.451  0.00  0.00    -0.393 OA
ATOM     37  H   SER A   5       4.255  -5.720  22.964  0.00  0.00    +0.209 HD
ENDBRANCH  35  36
ENDBRANCH   6  35
ENDBRANCH   3   6
ENDBRANCH   1   2
BRANCH   1  40
ATOM     38  C   LEU A   3       6.916   1.323  21.185  0.00  0.00    +0.234 C 
ATOM     39  O   LEU A   3       6.571   1.102  20.021  0.00  0.00    -0.274 OA
ATOM     40  N   GLN A   4       7.534   0.372  21.958  0.00  0.00    -0.302 N 
ATOM     41  H   GLN A   4       7.861   0.600  22.896  0.00  0.00    +0.150 HD
BRANCH  38  42
ATOM     42  CA  LEU A   3       6.710   2.696  21.867  0.00  0.00    +0.159 C 
BRANCH  42  44
ATOM     43  C   LYS A   2       4.673   3.576  22.999  0.00  0.00    +0.234 C 
ATOM     44  N   LEU A   3       5.548   2.549  22.739  0.00  0.00    -0.302 N 
ATOM     45  H   LEU A   3       5.291   1.598  22.982  0.00  0.00    +0.150 HD
ATOM     46  O   LYS A   2       4.869   4.739  22.652  0.00  0.00    -0.274 OA
BRANCH  43  47
ATOM     47  CA  LYS A   2       3.378   3.144  23.712  0.00  0.00    +0.159 C 
BRANCH  47  50
ATOM     48  C   PRO A   1       4.208   2.222  25.847  0.00  0.00    +0.231 C 
ATOM     49  O   PRO A   1       4.537   1.159  25.315  0.00  0.00    -0.274 OA
ATOM     50  N   LYS A   2       3.615   3.242  25.144  0.00  0.00    -0.303 N 
ATOM     51  H   LYS A   2       3.292   4.078  25.623  0.00  0.00    +0.149 HD
BRANCH  48  57
ATOM     52  N   PRO A   1       4.347   1.275  28.131  0.00  0.00    -0.306 NA
ATOM     53  H   PRO A   1       4.288   0.502  27.457  0.00  0.00    +0.123 HD
ATOM     54  CD  PRO A   1       5.600   1.131  28.881  0.00  0.00    +0.081 C 
ATOM     55  CG  PRO A   1       6.639   1.856  28.052  0.00  0.00    +0.017 C 
ATOM     56  CB  PRO A   1       5.873   3.062  27.545  0.00  0.00    +0.029 C 
ATOM     57  CA  PRO A   1       4.460   2.526  27.336  0.00  0.00    +0.140 C 
ENDBRANCH  48  57
ENDBRANCH  47  50
BRANCH  47  58
ATOM     58  CB  LYS A   2       2.201   4.037  23.276  0.00  0.00    +0.032 C 
BRANCH  58  59
ATOM     59  CG  LYS A   2       1.455   3.476  22.063  0.00  0.00    +0.007 C 
BRANCH  59  60
ATOM     60  CD  LYS A   2       1.914   4.096  20.742  0.00  0.00    +0.051 C 
BRANCH  60  61
ATOM     61  CE  LYS A   2       2.219   2.988  19.741  0.00  0.00    +0.127 C 
BRANCH  61  62
ATOM     62  NZ  LYS A   2       2.603   3.574  18.440  0.00  0.00    +0.219 N 
ATOM     63  HZ1 LYS A   2       1.950   4.305  18.131  0.00  0.00    +0.199 HD
ATOM     64  HZ2 LYS A   2       2.615   2.826  17.729  0.00  0.00    +0.199 HD
ATOM     65  HZ3 LYS A   2       3.549   3.970  18.465  0.00  0.00    +0.199 HD
ENDBRANCH  61  62
ENDBRANCH  60  61
ENDBRANCH  59  60
ENDBRANCH  58  59
ENDBRANCH  47  58
ENDBRANCH  43  47
ENDBRANCH  42  44
BRANCH  42  66
ATOM     66  CB  LEU A   3       7.956   3.113  22.659  0.00  0.00    +0.034 C 
BRANCH  66  67
ATOM     67  CG  LEU A   3       7.732   3.242  24.180  0.00  0.00    -0.015 C 
ATOM     68  CD2 LEU A   3       8.018   4.655  24.689  0.00  0.00    +0.007 C 
ATOM     69  CD1 LEU A   3       8.623   2.243  24.922  0.00  0.00    +0.007 C 
ENDBRANCH  66  67
ENDBRANCH  42  66
ENDBRANCH  38  42
ENDBRANCH   1  40
BRANCH   1  70
ATOM     70  CB  GLN A   4       9.345  -1.266  21.643  0.00  0.00    +0.041 C 
BRANCH  70  71
ATOM     71  CG  GLN A   4       9.989  -0.483  22.785  0.00  0.00    +0.098 C 
BRANCH  71  72
ATOM     72  CD  GLN A   4      10.013  -1.336  24.039  0.00  0.00    +0.211 C 
ATOM     73  OE1 GLN A   4       9.916  -0.881  25.178  0.00  0.00    -0.276 OA
ATOM     74  NE2 GLN A   4      10.066  -2.679  23.814  0.00  0.00    -0.329 N 
ATOM     75 HE21 GLN A   4      10.121  -3.310  24.604  0.00  0.00    +0.145 HD
ATOM     76 HE22 GLN A   4      10.240  -3.077  22.898  0.00  0.00    +0.145 HD
ENDBRANCH  71  72
ENDBRANCH  70  71
ENDBRANCH   1  70
TORSDOF 32
ENDMDL
MODEL 4
REMARK VINA RESULT:      -5.6      2.114      7.559
REMARK  Name = PKLQSSQA-mmff94.pdb
REMARK  35 active torsions:
REMARK  status: ('A' for Active; 'I' for Inactive)
REMARK    1  A    between atoms: _2  and  _3
REMARK    2  A    between atoms: _15  and  _16
REMARK    3  A    between atoms: _16  and  _17
REMARK    4  A    between atoms: _16  and  _19
REMARK    5  A    between atoms: _19  and  _20
REMARK    6  A    between atoms: _20  and  _21
REMARK    7  A    between atoms: _21  and  _22
REMARK    8  A    between atoms: _22  and  _23
REMARK    9  A    between atoms: _37  and  _38
REMARK   10  A    between atoms: _38  and  _39
REMARK   11  A    between atoms: _38  and  _41
REMARK   12  A    between atoms: _41  and  _42
REMARK   13  A    between atoms: _42  and  _43
REMARK   14  A    between atoms: _42  and  _44
REMARK   15  A    between atoms: _56  and  _57
REMARK   16  A    between atoms: _57  and  _58
REMARK   17  A    between atoms: _57  and  _60
REMARK   18  A    between atoms: _60  and  _61
REMARK   19  A    between atoms: _61  and  _62
REMARK   20  A    between atoms: _73  and  _74
REMARK   21  A    between atoms: _74  and  _75
REMARK   22  A    between atoms: _74  and  _77
REMARK   23  A    between atoms: _77  and  _78
REMARK   24  A    between atoms: _84  and  _85
REMARK   25  A    between atoms: _85  and  _86
REMARK   26  A    between atoms: _85  and  _88
REMARK   27  A    between atoms: _88  and  _89
REMARK   28  A    between atoms: _95  and  _96
REMARK   29  A    between atoms: _96  and  _97
REMARK   30  A    between atoms: _96  and  _99
REMARK   31  A    between atoms: _99  and  _100
REMARK   32  A    between atoms: _100  and  _101
REMARK   33  A    between atoms: _112  and  _113
REMARK   34  A    between atoms: _113  and  _114
REMARK   35  A    between atoms: _113  and  _116
REMARK                            x       y       z     vdW  Elec       q    Type
REMARK                         _______ _______ _______ _____ _____    ______ ____
ROOT
ATOM      1  CA  GLN A   4       6.565   0.374  21.251  0.00  0.00    +0.159 C 
ENDROOT
BRANCH   1   2
ATOM      2  C   GLN A   4       6.750  -1.060  21.789  0.00  0.00    +0.234 C 
ATOM      3  N   SER A   5       5.859  -1.994  21.334  0.00  0.00    -0.301 N 
ATOM      4  H   SER A   5       5.067  -1.747  20.747  0.00  0.00    +0.150 HD
ATOM      5  O   GLN A   4       7.667  -1.346  22.558  0.00  0.00    -0.274 OA
BRANCH   3   6
ATOM      6  CA  SER A   5       5.957  -3.414  21.706  0.00  0.00    +0.184 C 
BRANCH   6   7
ATOM      7  C   SER A   5       5.055  -3.637  22.934  0.00  0.00    +0.236 C 
ATOM      8  O   SER A   5       4.993  -2.814  23.849  0.00  0.00    -0.274 OA
ATOM      9  N   SER A   6       4.290  -4.777  22.914  0.00  0.00    -0.300 N 
ATOM     10  H   SER A   6       4.422  -5.483  22.191  0.00  0.00    +0.150 HD
BRANCH   9  11
ATOM     11  CA  SER A   6       3.519  -5.232  24.080  0.00  0.00    +0.184 C 
BRANCH  11  12
ATOM     12  C   SER A   6       4.454  -6.118  24.923  0.00  0.00    +0.236 C 
ATOM     13  N   GLN A   7       5.283  -5.455  25.792  0.00  0.00    -0.302 N 
ATOM     14  H   GLN A   7       5.274  -4.440  25.858  0.00  0.00    +0.150 HD
ATOM     15  O   SER A   6       4.467  -7.343  24.791  0.00  0.00    -0.274 OA
BRANCH  13  16
ATOM     16  CA  GLN A   7       6.213  -6.145  26.692  0.00  0.00    +0.159 C 
BRANCH  16  17
ATOM     17  C   GLN A   7       5.461  -6.294  28.031  0.00  0.00    +0.234 C 
ATOM     18  O   GLN A   7       5.414  -7.369  28.628  0.00  0.00    -0.274 OA
ATOM     19  N   ALA A   8       4.831  -5.166  28.487  0.00  0.00    -0.305 N 
ATOM     20  H   ALA A   8       4.890  -4.289  27.974  0.00  0.00    +0.149 HD
BRANCH  19  21
ATOM     21  CA  ALA A   8       4.027  -5.150  29.702  0.00  0.00    +0.133 C 
ATOM     22  CB  ALA A   8       4.031  -3.784  30.369  0.00  0.00    +0.035 C 
BRANCH  21  23
ATOM     23  C   ALA A   8       2.601  -5.530  29.328  0.00  0.00    +0.245 C 
ATOM     24  O   ALA A   8       1.695  -4.708  29.199  0.00  0.00    -0.299 OA
ENDBRANCH  21  23
ENDBRANCH  19  21
ENDBRANCH  16  17
BRANCH  16  25
ATOM     25  CB  GLN A   7       7.509  -5.338  26.855  0.00  0.00    +0.041 C 
BRANCH  25  26
ATOM     26  CG  GLN A   7       7.914  -4.563  25.601  0.00  0.00    +0.098 C 
BRANCH  26  27
ATOM     27  CD  GLN A   7       9.344  -4.833  25.189  0.00  0.00    +0.211 C 
ATOM     28  NE2 GLN A   7       9.864  -6.030  25.573  0.00  0.00    -0.329 N 
ATOM     29 HE21 GLN A   7       9.331  -6.754  26.032  0.00  0.00    +0.145 HD
ATOM     30 HE22 GLN A   7      10.804  -6.245  25.266  0.00  0.00    +0.145 HD
ATOM     31  OE1 GLN A   7      10.002  -4.049  24.516  0.00  0.00    -0.276 OA
ENDBRANCH  26  27
ENDBRANCH  25  26
ENDBRANCH  16  25
ENDBRANCH  13  16
ENDBRANCH  11  12
BRANCH  11  32
ATOM     32  CB  SER A   6       2.248  -5.990  23.680  0.00  0.00    +0.187 C 
BRANCH  32  33
ATOM     33  OG  SER A   6       2.511  -6.969  22.674  0.00  0.00    -0.393 OA
ATOM     34  H   SER A   6       3.417  -6.805  22.354  0.00  0.00    +0.209 HD
ENDBRANCH  32  33
ENDBRANCH  11  32
ENDBRANCH   9  11
ENDBRANCH   6   7
BRANCH   6  35
ATOM     35  CB  SER A   5       7.401  -3.850  21.989  0.00  0.00    +0.187 C 
BRANCH  35  36
ATOM     36  OG  SER A   5       7.479  -5.250  22.260  0.00  0.00    -0.393 OA
ATOM     37  H   SER A   5       7.791  -5.679  21.445  0.00  0.00    +0.209 HD
ENDBRANCH  35  36
ENDBRANCH   6  35
ENDBRANCH   3   6
ENDBRANCH   1   2
BRANCH   1  40
ATOM     38  C   LEU A   3       5.870   2.429  22.474  0.00  0.00    +0.234 C 
ATOM     39  O   LEU A   3       5.188   2.831  21.527  0.00  0.00    -0.274 OA
ATOM     40  N   GLN A   4       6.564   1.246  22.426  0.00  0.00    -0.302 N 
ATOM     41  H   GLN A   4       7.166   0.967  23.199  0.00  0.00    +0.150 HD
BRANCH  38  42
ATOM     42  CA  LEU A   3       6.030   3.235  23.784  0.00  0.00    +0.159 C 
BRANCH  42  44
ATOM     43  C   LYS A   2       6.054   2.083  25.993  0.00  0.00    +0.234 C 
ATOM     44  N   LEU A   3       6.612   2.318  24.760  0.00  0.00    -0.302 N 
ATOM     45  H   LEU A   3       7.335   1.697  24.410  0.00  0.00    +0.150 HD
ATOM     46  O   LYS A   2       5.112   2.730  26.445  0.00  0.00    -0.274 OA
BRANCH  43  47
ATOM     47  CA  LYS A   2       6.663   0.889  26.751  0.00  0.00    +0.159 C 
BRANCH  47  50
ATOM     48  C   PRO A   1       8.485  -0.438  25.742  0.00  0.00    +0.231 C 
ATOM     49  O   PRO A   1       7.767  -1.434  25.638  0.00  0.00    -0.274 OA
ATOM     50  N   LYS A   2       8.037   0.737  26.294  0.00  0.00    -0.303 N 
ATOM     51  H   LYS A   2       8.671   1.519  26.430  0.00  0.00    +0.149 HD
BRANCH  48  57
ATOM     52  N   PRO A   1      10.082  -1.277  24.046  0.00  0.00    -0.306 NA
ATOM     53  H   PRO A   1       9.133  -1.560  23.773  0.00  0.00    +0.123 HD
ATOM     54  CD  PRO A   1      10.638  -0.451  22.968  0.00  0.00    +0.081 C 
ATOM     55  CG  PRO A   1      10.192   0.961  23.286  0.00  0.00    +0.017 C 
ATOM     56  CB  PRO A   1      10.318   1.014  24.795  0.00  0.00    +0.029 C 
ATOM     57  CA  PRO A   1       9.940  -0.397  25.235  0.00  0.00    +0.140 C 
ENDBRANCH  48  57
ENDBRANCH  47  50
BRANCH  47  58
ATOM     58  CB  LYS A   2       6.601   1.129  28.271  0.00  0.00    +0.032 C 
BRANCH  58  59
ATOM     59  CG  LYS A   2       5.403   0.437  28.927  0.00  0.00    +0.007 C 
BRANCH  59  60
ATOM     60  CD  LYS A   2       4.869  -0.735  28.104  0.00  0.00    +0.051 C 
BRANCH  60  61
ATOM     61  CE  LYS A   2       3.361  -0.591  27.936  0.00  0.00    +0.127 C 
BRANCH  61  62
ATOM     62  NZ  LYS A   2       3.027   0.790  27.531  0.00  0.00    +0.219 N 
ATOM     63  HZ1 LYS A   2       3.710   1.476  27.876  0.00  0.00    +0.199 HD
ATOM     64  HZ2 LYS A   2       2.099   1.034  27.912  0.00  0.00    +0.199 HD
ATOM     65  HZ3 LYS A   2       2.958   0.881  26.511  0.00  0.00    +0.199 HD
ENDBRANCH  61  62
ENDBRANCH  60  61
ENDBRANCH  59  60
ENDBRANCH  58  59
ENDBRANCH  47  58
ENDBRANCH  43  47
ENDBRANCH  42  44
BRANCH  42  66
ATOM     66  CB  LEU A   3       6.919   4.467  23.572  0.00  0.00    +0.034 C 
BRANCH  66  67
ATOM     67  CG  LEU A   3       8.121   4.559  24.536  0.00  0.00    -0.015 C 
ATOM     68  CD2 LEU A   3       7.929   5.645  25.597  0.00  0.00    +0.007 C 
ATOM     69  CD1 LEU A   3       9.400   4.842  23.744  0.00  0.00    +0.007 C 
ENDBRANCH  66  67
ENDBRANCH  42  66
ENDBRANCH  38  42
ENDBRANCH   1  40
BRANCH   1  70
ATOM     70  CB  GLN A   4       7.704   0.765  20.297  0.00  0.00    +0.041 C 
BRANCH  70  71
ATOM     71  CG  GLN A   4       7.598   0.108  18.923  0.00  0.00    +0.098 C 
BRANCH  71  72
ATOM     72  CD  GLN A   4       6.209   0.332  18.355  0.00  0.00    +0.211 C 
ATOM     73  OE1 GLN A   4       5.694   1.442  18.225  0.00  0.00    -0.276 OA
ATOM     74  NE2 GLN A   4       5.587  -0.796  17.909  0.00  0.00    -0.329 N 
ATOM     75 HE21 GLN A   4       4.643  -0.729  17.549  0.00  0.00    +0.145 HD
ATOM     76 HE22 GLN A   4       5.944  -1.728  18.087  0.00  0.00    +0.145 HD
ENDBRANCH  71  72
ENDBRANCH  70  71
ENDBRANCH   1  70
TORSDOF 32
ENDMDL
MODEL 5
REMARK VINA RESULT:      -5.6      1.584      2.914
REMARK  Name = PKLQSSQA-mmff94.pdb
REMARK  35 active torsions:
REMARK  status: ('A' for Active; 'I' for Inactive)
REMARK    1  A    between atoms: _2  and  _3
REMARK    2  A    between atoms: _15  and  _16
REMARK    3  A    between atoms: _16  and  _17
REMARK    4  A    between atoms: _16  and  _19
REMARK    5  A    between atoms: _19  and  _20
REMARK    6  A    between atoms: _20  and  _21
REMARK    7  A    between atoms: _21  and  _22
REMARK    8  A    between atoms: _22  and  _23
REMARK    9  A    between atoms: _37  and  _38
REMARK   10  A    between atoms: _38  and  _39
REMARK   11  A    between atoms: _38  and  _41
REMARK   12  A    between atoms: _41  and  _42
REMARK   13  A    between atoms: _42  and  _43
REMARK   14  A    between atoms: _42  and  _44
REMARK   15  A    between atoms: _56  and  _57
REMARK   16  A    between atoms: _57  and  _58
REMARK   17  A    between atoms: _57  and  _60
REMARK   18  A    between atoms: _60  and  _61
REMARK   19  A    between atoms: _61  and  _62
REMARK   20  A    between atoms: _73  and  _74
REMARK   21  A    between atoms: _74  and  _75
REMARK   22  A    between atoms: _74  and  _77
REMARK   23  A    between atoms: _77  and  _78
REMARK   24  A    between atoms: _84  and  _85
REMARK   25  A    between atoms: _85  and  _86
REMARK   26  A    between atoms: _85  and  _88
REMARK   27  A    between atoms: _88  and  _89
REMARK   28  A    between atoms: _95  and  _96
REMARK   29  A    between atoms: _96  and  _97
REMARK   30  A    between atoms: _96  and  _99
REMARK   31  A    between atoms: _99  and  _100
REMARK   32  A    between atoms: _100  and  _101
REMARK   33  A    between atoms: _112  and  _113
REMARK   34  A    between atoms: _113  and  _114
REMARK   35  A    between atoms: _113  and  _116
REMARK                            x       y       z     vdW  Elec       q    Type
REMARK                         _______ _______ _______ _____ _____    ______ ____
ROOT
ATOM      1  CA  GLN A   4       7.190  -2.320  22.361  0.00  0.00    +0.159 C 
ENDROOT
BRANCH   1   2
ATOM      2  C   GLN A   4       7.472  -1.231  21.305  0.00  0.00    +0.234 C 
ATOM      3  N   SER A   5       6.381  -0.550  20.835  0.00  0.00    -0.301 N 
ATOM      4  H   SER A   5       5.431  -0.802  21.095  0.00  0.00    +0.150 HD
ATOM      5  O   GLN A   4       8.617  -0.974  20.934  0.00  0.00    -0.274 OA
BRANCH   3   6
ATOM      6  CA  SER A   5       6.505   0.561  19.879  0.00  0.00    +0.184 C 
BRANCH   6   7
ATOM      7  C   SER A   5       5.635   1.721  20.398  0.00  0.00    +0.236 C 
ATOM      8  O   SER A   5       4.625   2.090  19.798  0.00  0.00    -0.274 OA
ATOM      9  N   SER A   6       6.028   2.273  21.593  0.00  0.00    -0.300 N 
ATOM     10  H   SER A   6       6.913   2.010  22.025  0.00  0.00    +0.150 HD
BRANCH   9  11
ATOM     11  CA  SER A   6       5.424   3.499  22.133  0.00  0.00    +0.184 C 
BRANCH  11  12
ATOM     12  C   SER A   6       6.573   4.373  22.668  0.00  0.00    +0.236 C 
ATOM     13  N   GLN A   7       6.892   4.195  23.990  0.00  0.00    -0.302 N 
ATOM     14  H   GLN A   7       6.387   3.529  24.570  0.00  0.00    +0.150 HD
ATOM     15  O   SER A   6       7.138   5.198  21.949  0.00  0.00    -0.274 OA
BRANCH  13  16
ATOM     16  CA  GLN A   7       7.980   4.922  24.653  0.00  0.00    +0.159 C 
BRANCH  16  17
ATOM     17  C   GLN A   7       9.281   4.227  24.197  0.00  0.00    +0.234 C 
ATOM     18  O   GLN A   7      10.256   4.872  23.814  0.00  0.00    -0.274 OA
ATOM     19  N   ALA A   8       9.262   2.858  24.220  0.00  0.00    -0.305 N 
ATOM     20  H   ALA A   8       8.442   2.349  24.546  0.00  0.00    +0.149 HD
BRANCH  19  21
ATOM     21  CA  ALA A   8      10.384   2.047  23.765  0.00  0.00    +0.133 C 
ATOM     22  CB  ALA A   8      10.616   0.842  24.661  0.00  0.00    +0.035 C 
BRANCH  21  23
ATOM     23  C   ALA A   8      10.082   1.579  22.348  0.00  0.00    +0.245 C 
ATOM     24  O   ALA A   8       9.166   2.037  21.667  0.00  0.00    -0.299 OA
ENDBRANCH  21  23
ENDBRANCH  19  21
ENDBRANCH  16  17
BRANCH  16  25
ATOM     25  CB  GLN A   7       7.815   4.873  26.179  0.00  0.00    +0.041 C 
BRANCH  25  26
ATOM     26  CG  GLN A   7       6.566   5.595  26.686  0.00  0.00    +0.098 C 
BRANCH  26  27
ATOM     27  CD  GLN A   7       6.133   5.113  28.052  0.00  0.00    +0.211 C 
ATOM     28  NE2 GLN A   7       7.044   5.247  29.054  0.00  0.00    -0.329 N 
ATOM     29 HE21 GLN A   7       7.933   5.712  28.947  0.00  0.00    +0.145 HD
ATOM     30 HE22 GLN A   7       6.752   4.971  29.983  0.00  0.00    +0.145 HD
ATOM     31  OE1 GLN A   7       5.016   4.659  28.275  0.00  0.00    -0.276 OA
ENDBRANCH  26  27
ENDBRANCH  25  26
ENDBRANCH  16  25
ENDBRANCH  13  16
ENDBRANCH  11  12
BRANCH  11  32
ATOM     32  CB  SER A   6       4.391   3.207  23.228  0.00  0.00    +0.187 C 
BRANCH  32  33
ATOM     33  OG  SER A   6       3.153   2.755  22.679  0.00  0.00    -0.393 OA
ATOM     34  H   SER A   6       3.374   2.179  21.925  0.00  0.00    +0.209 HD
ENDBRANCH  32  33
ENDBRANCH  11  32
ENDBRANCH   9  11
ENDBRANCH   6   7
BRANCH   6  35
ATOM     35  CB  SER A   5       6.103   0.158  18.454  0.00  0.00    +0.187 C 
BRANCH  35  36
ATOM     36  OG  SER A   5       6.459   1.166  17.507  0.00  0.00    -0.393 OA
ATOM     37  H   SER A   5       6.341   2.024  17.949  0.00  0.00    +0.209 HD
ENDBRANCH  35  36
ENDBRANCH   6  35
ENDBRANCH   3   6
ENDBRANCH   1   2
BRANCH   1  40
ATOM     38  C   LEU A   3       7.393  -1.503  24.706  0.00  0.00    +0.234 C 
ATOM     39  O   LEU A   3       8.520  -1.986  24.836  0.00  0.00    -0.274 OA
ATOM     40  N   GLN A   4       6.680  -1.613  23.537  0.00  0.00    -0.302 N 
ATOM     41  H   GLN A   4       5.727  -1.257  23.476  0.00  0.00    +0.150 HD
BRANCH  38  42
ATOM     42  CA  LEU A   3       6.668  -0.760  25.852  0.00  0.00    +0.159 C 
BRANCH  42  44
ATOM     43  C   LYS A   2       4.858  -2.397  26.357  0.00  0.00    +0.234 C 
ATOM     44  N   LEU A   3       6.048  -1.791  26.681  0.00  0.00    -0.302 N 
ATOM     45  H   LEU A   3       6.637  -2.196  27.401  0.00  0.00    +0.150 HD
ATOM     46  O   LYS A   2       4.136  -2.023  25.434  0.00  0.00    -0.274 OA
BRANCH  43  47
ATOM     47  CA  LYS A   2       4.522  -3.636  27.206  0.00  0.00    +0.159 C 
BRANCH  47  50
ATOM     48  C   PRO A   1       2.744  -5.309  26.835  0.00  0.00    +0.231 C 
ATOM     49  O   PRO A   1       2.386  -5.262  28.014  0.00  0.00    -0.274 OA
ATOM     50  N   LYS A   2       3.793  -4.564  26.355  0.00  0.00    -0.303 N 
ATOM     51  H   LYS A   2       4.108  -4.675  25.395  0.00  0.00    +0.149 HD
BRANCH  48  57
ATOM     52  N   PRO A   1       1.987  -5.450  24.481  0.00  0.00    -0.306 NA
ATOM     53  H   PRO A   1       2.587  -4.623  24.584  0.00  0.00    +0.123 HD
ATOM     54  CD  PRO A   1       2.596  -6.331  23.478  0.00  0.00    +0.081 C 
ATOM     55  CG  PRO A   1       3.559  -7.203  24.256  0.00  0.00    +0.017 C 
ATOM     56  CB  PRO A   1       2.798  -7.472  25.538  0.00  0.00    +0.029 C 
ATOM     57  CA  PRO A   1       2.032  -6.175  25.778  0.00  0.00    +0.140 C 
ENDBRANCH  48  57
ENDBRANCH  47  50
BRANCH  47  58
ATOM     58  CB  LYS A   2       5.810  -4.275  27.759  0.00  0.00    +0.032 C 
BRANCH  58  59
ATOM     59  CG  LYS A   2       6.535  -5.132  26.719  0.00  0.00    +0.007 C 
BRANCH  59  60
ATOM     60  CD  LYS A   2       8.055  -4.969  26.768  0.00  0.00    +0.051 C 
BRANCH  60  61
ATOM     61  CE  LYS A   2       8.649  -5.344  25.415  0.00  0.00    +0.127 C 
BRANCH  61  62
ATOM     62  NZ  LYS A   2      10.084  -5.663  25.563  0.00  0.00    +0.219 N 
ATOM     63  HZ1 LYS A   2      10.402  -5.592  26.537  0.00  0.00    +0.199 HD
ATOM     64  HZ2 LYS A   2      10.632  -5.002  24.991  0.00  0.00    +0.199 HD
ATOM     65  HZ3 LYS A   2      10.302  -6.603  25.215  0.00  0.00    +0.199 HD
ENDBRANCH  61  62
ENDBRANCH  60  61
ENDBRANCH  59  60
ENDBRANCH  58  59
ENDBRANCH  47  58
ENDBRANCH  43  47
ENDBRANCH  42  44
BRANCH  42  66
ATOM     66  CB  LEU A   3       7.648   0.097  26.664  0.00  0.00    +0.034 C 
BRANCH  66  67
ATOM     67  CG  LEU A   3       7.076   1.451  27.131  0.00  0.00    -0.015 C 
ATOM     68  CD2 LEU A   3       6.868   1.500  28.645  0.00  0.00    +0.007 C 
ATOM     69  CD1 LEU A   3       5.744   1.722  26.425  0.00  0.00    +0.007 C 
ENDBRANCH  66  67
ENDBRANCH  42  66
ENDBRANCH  38  42
ENDBRANCH   1  40
BRANCH   1  70
ATOM     70  CB  GLN A   4       6.152  -3.334  21.857  0.00  0.00    +0.041 C 
BRANCH  70  71
ATOM     71  CG  GLN A   4       5.989  -4.543  22.775  0.00  0.00    +0.098 C 
BRANCH  71  72
ATOM     72  CD  GLN A   4       6.493  -5.790  22.073  0.00  0.00    +0.211 C 
ATOM     73  OE1 GLN A   4       7.631  -6.239  22.209  0.00  0.00    -0.276 OA
ATOM     74  NE2 GLN A   4       5.557  -6.443  21.329  0.00  0.00    -0.329 N 
ATOM     75 HE21 GLN A   4       5.830  -7.264  20.802  0.00  0.00    +0.145 HD
ATOM     76 HE22 GLN A   4       4.646  -6.050  21.123  0.00  0.00    +0.145 HD
ENDBRANCH  71  72
ENDBRANCH  70  71
ENDBRANCH   1  70
TORSDOF 32
ENDMDL
MODEL 6
REMARK VINA RESULT:      -5.6      1.719      3.990
REMARK  Name = PKLQSSQA-mmff94.pdb
REMARK  35 active torsions:
REMARK  status: ('A' for Active; 'I' for Inactive)
REMARK    1  A    between atoms: _2  and  _3
REMARK    2  A    between atoms: _15  and  _16
REMARK    3  A    between atoms: _16  and  _17
REMARK    4  A    between atoms: _16  and  _19
REMARK    5  A    between atoms: _19  and  _20
REMARK    6  A    between atoms: _20  and  _21
REMARK    7  A    between atoms: _21  and  _22
REMARK    8  A    between atoms: _22  and  _23
REMARK    9  A    between atoms: _37  and  _38
REMARK   10  A    between atoms: _38  and  _39
REMARK   11  A    between atoms: _38  and  _41
REMARK   12  A    between atoms: _41  and  _42
REMARK   13  A    between atoms: _42  and  _43
REMARK   14  A    between atoms: _42  and  _44
REMARK   15  A    between atoms: _56  and  _57
REMARK   16  A    between atoms: _57  and  _58
REMARK   17  A    between atoms: _57  and  _60
REMARK   18  A    between atoms: _60  and  _61
REMARK   19  A    between atoms: _61  and  _62
REMARK   20  A    between atoms: _73  and  _74
REMARK   21  A    between atoms: _74  and  _75
REMARK   22  A    between atoms: _74  and  _77
REMARK   23  A    between atoms: _77  and  _78
REMARK   24  A    between atoms: _84  and  _85
REMARK   25  A    between atoms: _85  and  _86
REMARK   26  A    between atoms: _85  and  _88
REMARK   27  A    between atoms: _88  and  _89
REMARK   28  A    between atoms: _95  and  _96
REMARK   29  A    between atoms: _96  and  _97
REMARK   30  A    between atoms: _96  and  _99
REMARK   31  A    between atoms: _99  and  _100
REMARK   32  A    between atoms: _100  and  _101
REMARK   33  A    between atoms: _112  and  _113
REMARK   34  A    between atoms: _113  and  _114
REMARK   35  A    between atoms: _113  and  _116
REMARK                            x       y       z     vdW  Elec       q    Type
REMARK                         _______ _______ _______ _____ _____    ______ ____
ROOT
ATOM      1  CA  GLN A   4       7.210  -2.553  22.025  0.00  0.00    +0.159 C 
ENDROOT
BRANCH   1   2
ATOM      2  C   GLN A   4       7.577  -1.289  21.220  0.00  0.00    +0.234 C 
ATOM      3  N   SER A   5       6.540  -0.648  20.597  0.00  0.00    -0.301 N 
ATOM      4  H   SER A   5       5.596  -1.028  20.587  0.00  0.00    +0.150 HD
ATOM      5  O   GLN A   4       8.733  -0.868  21.172  0.00  0.00    -0.274 OA
BRANCH   3   6
ATOM      6  CA  SER A   5       6.728   0.607  19.854  0.00  0.00    +0.184 C 
BRANCH   6   7
ATOM      7  C   SER A   5       5.788   1.659  20.472  0.00  0.00    +0.236 C 
ATOM      8  O   SER A   5       4.765   2.029  19.895  0.00  0.00    -0.274 OA
ATOM      9  N   SER A   6       6.136   2.110  21.722  0.00  0.00    -0.300 N 
ATOM     10  H   SER A   6       7.030   1.855  22.140  0.00  0.00    +0.150 HD
BRANCH   9  11
ATOM     11  CA  SER A   6       5.456   3.240  22.371  0.00  0.00    +0.184 C 
BRANCH  11  12
ATOM     12  C   SER A   6       6.546   4.246  22.786  0.00  0.00    +0.236 C 
ATOM     13  N   GLN A   7       6.983   4.151  24.082  0.00  0.00    -0.302 N 
ATOM     14  H   GLN A   7       6.598   3.458  24.720  0.00  0.00    +0.150 HD
ATOM     15  O   SER A   6       6.964   5.097  22.000  0.00  0.00    -0.274 OA
BRANCH  13  16
ATOM     16  CA  GLN A   7       8.038   5.008  24.633  0.00  0.00    +0.159 C 
BRANCH  16  17
ATOM     17  C   GLN A   7       9.369   4.355  24.206  0.00  0.00    +0.234 C 
ATOM     18  O   GLN A   7      10.333   5.031  23.847  0.00  0.00    -0.274 OA
ATOM     19  N   ALA A   8       9.392   2.986  24.227  0.00  0.00    -0.305 N 
ATOM     20  H   ALA A   8       8.581   2.452  24.532  0.00  0.00    +0.149 HD
BRANCH  19  21
ATOM     21  CA  ALA A   8      10.549   2.211  23.796  0.00  0.00    +0.133 C 
ATOM     22  CB  ALA A   8      10.697   0.922  24.588  0.00  0.00    +0.035 C 
BRANCH  21  23
ATOM     23  C   ALA A   8      10.374   1.885  22.320  0.00  0.00    +0.245 C 
ATOM     24  O   ALA A   8       9.324   2.075  21.706  0.00  0.00    -0.299 OA
ENDBRANCH  21  23
ENDBRANCH  19  21
ENDBRANCH  16  17
BRANCH  16  25
ATOM     25  CB  GLN A   7       7.916   5.104  26.161  0.00  0.00    +0.041 C 
BRANCH  25  26
ATOM     26  CG  GLN A   7       6.480   4.982  26.673  0.00  0.00    +0.098 C 
BRANCH  26  27
ATOM     27  CD  GLN A   7       6.385   5.135  28.174  0.00  0.00    +0.211 C 
ATOM     28  NE2 GLN A   7       5.166   4.893  28.728  0.00  0.00    -0.329 N 
ATOM     29 HE21 GLN A   7       4.372   4.548  28.209  0.00  0.00    +0.145 HD
ATOM     30 HE22 GLN A   7       5.097   4.947  29.736  0.00  0.00    +0.145 HD
ATOM     31  OE1 GLN A   7       7.347   5.423  28.876  0.00  0.00    -0.276 OA
ENDBRANCH  26  27
ENDBRANCH  25  26
ENDBRANCH  16  25
ENDBRANCH  13  16
ENDBRANCH  11  12
BRANCH  11  32
ATOM     32  CB  SER A   6       4.617   2.801  23.577  0.00  0.00    +0.187 C 
BRANCH  32  33
ATOM     33  OG  SER A   6       5.008   1.512  24.051  0.00  0.00    -0.393 OA
ATOM     34  H   SER A   6       5.552   1.109  23.351  0.00  0.00    +0.209 HD
ENDBRANCH  32  33
ENDBRANCH  11  32
ENDBRANCH   9  11
ENDBRANCH   6   7
BRANCH   6  35
ATOM     35  CB  SER A   5       6.471   0.445  18.350  0.00  0.00    +0.187 C 
BRANCH  35  36
ATOM     36  OG  SER A   5       5.377  -0.437  18.100  0.00  0.00    -0.393 OA
ATOM     37  H   SER A   5       5.723  -1.175  17.570  0.00  0.00    +0.209 HD
ENDBRANCH  35  36
ENDBRANCH   6  35
ENDBRANCH   3   6
ENDBRANCH   1   2
BRANCH   1  40
ATOM     38  C   LEU A   3       8.720  -2.539  24.005  0.00  0.00    +0.234 C 
ATOM     39  O   LEU A   3       9.636  -3.082  23.382  0.00  0.00    -0.274 OA
ATOM     40  N   GLN A   4       7.514  -2.240  23.422  0.00  0.00    -0.302 N 
ATOM     41  H   GLN A   4       6.754  -1.846  23.975  0.00  0.00    +0.150 HD
BRANCH  38  42
ATOM     42  CA  LEU A   3       8.836  -2.174  25.504  0.00  0.00    +0.159 C 
BRANCH  42  44
ATOM     43  C   LYS A   2       7.541  -0.520  26.844  0.00  0.00    +0.234 C 
ATOM     44  N   LEU A   3       7.607  -1.464  25.848  0.00  0.00    -0.302 N 
ATOM     45  H   LEU A   3       6.847  -1.542  25.180  0.00  0.00    +0.150 HD
ATOM     46  O   LYS A   2       8.459  -0.301  27.632  0.00  0.00    -0.274 OA
BRANCH  43  47
ATOM     47  CA  LYS A   2       6.237   0.298  26.862  0.00  0.00    +0.159 C 
BRANCH  47  50
ATOM     48  C   PRO A   1       4.530  -1.389  26.281  0.00  0.00    +0.231 C 
ATOM     49  O   PRO A   1       4.817  -1.338  25.083  0.00  0.00    -0.274 OA
ATOM     50  N   LYS A   2       5.157  -0.609  27.221  0.00  0.00    -0.303 N 
ATOM     51  H   LYS A   2       4.852  -0.622  28.190  0.00  0.00    +0.149 HD
BRANCH  48  57
ATOM     52  N   PRO A   1       3.615  -3.689  26.217  0.00  0.00    -0.306 NA
ATOM     53  H   PRO A   1       4.492  -3.669  25.682  0.00  0.00    +0.123 HD
ATOM     54  CD  PRO A   1       3.769  -4.660  27.305  0.00  0.00    +0.081 C 
ATOM     55  CG  PRO A   1       4.376  -3.875  28.449  0.00  0.00    +0.017 C 
ATOM     56  CB  PRO A   1       3.660  -2.543  28.349  0.00  0.00    +0.029 C 
ATOM     57  CA  PRO A   1       3.468  -2.352  26.848  0.00  0.00    +0.140 C 
ENDBRANCH  48  57
ENDBRANCH  47  50
BRANCH  47  58
ATOM     58  CB  LYS A   2       6.348   1.464  27.862  0.00  0.00    +0.032 C 
BRANCH  58  59
ATOM     59  CG  LYS A   2       5.548   1.218  29.143  0.00  0.00    +0.007 C 
BRANCH  59  60
ATOM     60  CD  LYS A   2       6.252   1.744  30.395  0.00  0.00    +0.051 C 
BRANCH  60  61
ATOM     61  CE  LYS A   2       7.662   2.195  30.031  0.00  0.00    +0.127 C 
BRANCH  61  62
ATOM     62  NZ  LYS A   2       8.639   1.150  30.402  0.00  0.00    +0.219 N 
ATOM     63  HZ1 LYS A   2       9.488   1.184  29.824  0.00  0.00    +0.199 HD
ATOM     64  HZ2 LYS A   2       8.199   0.225  30.281  0.00  0.00    +0.199 HD
ATOM     65  HZ3 LYS A   2       8.912   1.218  31.389  0.00  0.00    +0.199 HD
ENDBRANCH  61  62
ENDBRANCH  60  61
ENDBRANCH  59  60
ENDBRANCH  58  59
ENDBRANCH  47  58
ENDBRANCH  43  47
ENDBRANCH  42  44
BRANCH  42  66
ATOM     66  CB  LEU A   3       9.019  -3.429  26.367  0.00  0.00    +0.034 C 
BRANCH  66  67
ATOM     67  CG  LEU A   3       8.298  -4.683  25.830  0.00  0.00    -0.015 C 
ATOM     68  CD2 LEU A   3       7.368  -5.306  26.872  0.00  0.00    +0.007 C 
ATOM     69  CD1 LEU A   3       9.329  -5.722  25.382  0.00  0.00    +0.007 C 
ENDBRANCH  66  67
ENDBRANCH  42  66
ENDBRANCH  38  42
ENDBRANCH   1  40
BRANCH   1  70
ATOM     70  CB  GLN A   4       5.723  -2.905  21.868  0.00  0.00    +0.041 C 
BRANCH  70  71
ATOM     71  CG  GLN A   4       5.362  -4.281  22.421  0.00  0.00    +0.098 C 
BRANCH  71  72
ATOM     72  CD  GLN A   4       6.079  -5.355  21.624  0.00  0.00    +0.211 C 
ATOM     73  OE1 GLN A   4       5.974  -5.487  20.404  0.00  0.00    -0.276 OA
ATOM     74  NE2 GLN A   4       6.932  -6.130  22.350  0.00  0.00    -0.329 N 
ATOM     75 HE21 GLN A   4       7.419  -6.891  21.893  0.00  0.00    +0.145 HD
ATOM     76 HE22 GLN A   4       6.969  -6.108  23.363  0.00  0.00    +0.145 HD
ENDBRANCH  71  72
ENDBRANCH  70  71
ENDBRANCH   1  70
TORSDOF 32
ENDMDL
MODEL 7
REMARK VINA RESULT:      -5.4      1.992      5.189
REMARK  Name = PKLQSSQA-mmff94.pdb
REMARK  35 active torsions:
REMARK  status: ('A' for Active; 'I' for Inactive)
REMARK    1  A    between atoms: _2  and  _3
REMARK    2  A    between atoms: _15  and  _16
REMARK    3  A    between atoms: _16  and  _17
REMARK    4  A    between atoms: _16  and  _19
REMARK    5  A    between atoms: _19  and  _20
REMARK    6  A    between atoms: _20  and  _21
REMARK    7  A    between atoms: _21  and  _22
REMARK    8  A    between atoms: _22  and  _23
REMARK    9  A    between atoms: _37  and  _38
REMARK   10  A    between atoms: _38  and  _39
REMARK   11  A    between atoms: _38  and  _41
REMARK   12  A    between atoms: _41  and  _42
REMARK   13  A    between atoms: _42  and  _43
REMARK   14  A    between atoms: _42  and  _44
REMARK   15  A    between atoms: _56  and  _57
REMARK   16  A    between atoms: _57  and  _58
REMARK   17  A    between atoms: _57  and  _60
REMARK   18  A    between atoms: _60  and  _61
REMARK   19  A    between atoms: _61  and  _62
REMARK   20  A    between atoms: _73  and  _74
REMARK   21  A    between atoms: _74  and  _75
REMARK   22  A    between atoms: _74  and  _77
REMARK   23  A    between atoms: _77  and  _78
REMARK   24  A    between atoms: _84  and  _85
REMARK   25  A    between atoms: _85  and  _86
REMARK   26  A    between atoms: _85  and  _88
REMARK   27  A    between atoms: _88  and  _89
REMARK   28  A    between atoms: _95  and  _96
REMARK   29  A    between atoms: _96  and  _97
REMARK   30  A    between atoms: _96  and  _99
REMARK   31  A    between atoms: _99  and  _100
REMARK   32  A    between atoms: _100  and  _101
REMARK   33  A    between atoms: _112  and  _113
REMARK   34  A    between atoms: _113  and  _114
REMARK   35  A    between atoms: _113  and  _116
REMARK                            x       y       z     vdW  Elec       q    Type
REMARK                         _______ _______ _______ _____ _____    ______ ____
ROOT
ATOM      1  CA  GLN A   4       7.760  -4.469  24.861  0.00  0.00    +0.159 C 
ENDROOT
BRANCH   1   2
ATOM      2  C   GLN A   4       7.558  -3.000  24.435  0.00  0.00    +0.234 C 
ATOM      3  N   SER A   5       8.688  -2.228  24.376  0.00  0.00    -0.301 N 
ATOM      4  H   SER A   5       9.595  -2.572  24.679  0.00  0.00    +0.150 HD
ATOM      5  O   GLN A   4       6.447  -2.561  24.137  0.00  0.00    -0.274 OA
BRANCH   3   6
ATOM      6  CA  SER A   5       8.658  -0.831  23.918  0.00  0.00    +0.184 C 
BRANCH   6   7
ATOM      7  C   SER A   5       8.478  -0.846  22.389  0.00  0.00    +0.236 C 
ATOM      8  O   SER A   5       9.410  -1.121  21.631  0.00  0.00    -0.274 OA
ATOM      9  N   SER A   6       7.208  -0.589  21.934  0.00  0.00    -0.300 N 
ATOM     10  H   SER A   6       6.476  -0.280  22.573  0.00  0.00    +0.150 HD
BRANCH   9  11
ATOM     11  CA  SER A   6       6.905  -0.384  20.511  0.00  0.00    +0.184 C 
BRANCH  11  12
ATOM     12  C   SER A   6       6.259   1.008  20.381  0.00  0.00    +0.236 C 
ATOM     13  N   GLN A   7       6.149   1.726  21.545  0.00  0.00    -0.302 N 
ATOM     14  H   GLN A   7       6.472   1.346  22.432  0.00  0.00    +0.150 HD
ATOM     15  O   SER A   6       5.844   1.422  19.298  0.00  0.00    -0.274 OA
BRANCH  13  16
ATOM     16  CA  GLN A   7       5.589   3.080  21.597  0.00  0.00    +0.159 C 
BRANCH  16  17
ATOM     17  C   GLN A   7       6.567   3.900  22.464  0.00  0.00    +0.234 C 
ATOM     18  O   GLN A   7       6.318   5.058  22.799  0.00  0.00    -0.274 OA
ATOM     19  N   ALA A   8       7.733   3.266  22.805  0.00  0.00    -0.305 N 
ATOM     20  H   ALA A   8       7.912   2.306  22.518  0.00  0.00    +0.149 HD
BRANCH  19  21
ATOM     21  CA  ALA A   8       8.789   3.918  23.568  0.00  0.00    +0.133 C 
ATOM     22  CB  ALA A   8       8.538   3.845  25.066  0.00  0.00    +0.035 C 
BRANCH  21  23
ATOM     23  C   ALA A   8      10.104   3.226  23.237  0.00  0.00    +0.245 C 
ATOM     24  O   ALA A   8      10.247   2.473  22.275  0.00  0.00    -0.299 OA
ENDBRANCH  21  23
ENDBRANCH  19  21
ENDBRANCH  16  17
BRANCH  16  25
ATOM     25  CB  GLN A   7       4.176   3.060  22.198  0.00  0.00    +0.041 C 
BRANCH  25  26
ATOM     26  CG  GLN A   7       3.121   3.720  21.310  0.00  0.00    +0.098 C 
BRANCH  26  27
ATOM     27  CD  GLN A   7       2.589   2.783  20.249  0.00  0.00    +0.211 C 
ATOM     28  NE2 GLN A   7       3.200   2.840  19.035  0.00  0.00    -0.329 N 
ATOM     29 HE21 GLN A   7       4.017   3.401  18.842  0.00  0.00    +0.145 HD
ATOM     30 HE22 GLN A   7       2.885   2.188  18.328  0.00  0.00    +0.145 HD
ATOM     31  OE1 GLN A   7       1.684   1.984  20.460  0.00  0.00    -0.276 OA
ENDBRANCH  26  27
ENDBRANCH  25  26
ENDBRANCH  16  25
ENDBRANCH  13  16
ENDBRANCH  11  12
BRANCH  11  32
ATOM     32  CB  SER A   6       5.989  -1.476  19.946  0.00  0.00    +0.187 C 
BRANCH  32  33
ATOM     33  OG  SER A   6       5.609  -2.418  20.950  0.00  0.00    -0.393 OA
ATOM     34  H   SER A   6       4.707  -2.179  21.232  0.00  0.00    +0.209 HD
ENDBRANCH  32  33
ENDBRANCH  11  32
ENDBRANCH   9  11
ENDBRANCH   6   7
BRANCH   6  35
ATOM     35  CB  SER A   5       9.917  -0.053  24.324  0.00  0.00    +0.187 C 
BRANCH  35  36
ATOM     36  OG  SER A   5       9.775   0.530  25.620  0.00  0.00    -0.393 OA
ATOM     37  H   SER A   5      10.592   0.334  26.109  0.00  0.00    +0.209 HD
ENDBRANCH  35  36
ENDBRANCH   6  35
ENDBRANCH   3   6
ENDBRANCH   1   2
BRANCH   1  40
ATOM     38  C   LEU A   3       7.049  -5.372  27.070  0.00  0.00    +0.234 C 
ATOM     39  O   LEU A   3       8.186  -5.766  27.339  0.00  0.00    -0.274 OA
ATOM     40  N   GLN A   4       6.756  -4.727  25.894  0.00  0.00    -0.302 N 
ATOM     41  H   GLN A   4       5.797  -4.465  25.672  0.00  0.00    +0.150 HD
BRANCH  38  42
ATOM     42  CA  LEU A   3       5.846  -5.594  28.017  0.00  0.00    +0.159 C 
BRANCH  42  44
ATOM     43  C   LYS A   2       4.398  -3.863  29.072  0.00  0.00    +0.234 C 
ATOM     44  N   LEU A   3       5.061  -4.363  27.978  0.00  0.00    -0.302 N 
ATOM     45  H   LEU A   3       5.196  -3.776  27.161  0.00  0.00    +0.150 HD
ATOM     46  O   LYS A   2       4.276  -4.476  30.130  0.00  0.00    -0.274 OA
BRANCH  43  47
ATOM     47  CA  LYS A   2       3.866  -2.429  28.893  0.00  0.00    +0.159 C 
BRANCH  47  50
ATOM     48  C   PRO A   1       5.223  -0.605  27.929  0.00  0.00    +0.231 C 
ATOM     49  O   PRO A   1       5.158   0.058  28.967  0.00  0.00    -0.274 OA
ATOM     50  N   LYS A   2       4.604  -1.823  27.794  0.00  0.00    -0.303 N 
ATOM     51  H   LYS A   2       4.618  -2.314  26.905  0.00  0.00    +0.149 HD
BRANCH  48  57
ATOM     52  N   PRO A   1       5.150  -0.132  25.499  0.00  0.00    -0.306 NA
ATOM     53  H   PRO A   1       4.189  -0.271  25.836  0.00  0.00    +0.123 HD
ATOM     54  CD  PRO A   1       5.240   1.215  24.926  0.00  0.00    +0.081 C 
ATOM     55  CG  PRO A   1       5.586   2.116  26.093  0.00  0.00    +0.017 C 
ATOM     56  CB  PRO A   1       6.557   1.266  26.888  0.00  0.00    +0.029 C 
ATOM     57  CA  PRO A   1       6.030  -0.153  26.696  0.00  0.00    +0.140 C 
ENDBRANCH  48  57
ENDBRANCH  47  50
BRANCH  47  58
ATOM     58  CB  LYS A   2       2.352  -2.448  28.609  0.00  0.00    +0.032 C 
BRANCH  58  59
ATOM     59  CG  LYS A   2       1.971  -3.447  27.515  0.00  0.00    +0.007 C 
BRANCH  59  60
ATOM     60  CD  LYS A   2       1.635  -2.773  26.184  0.00  0.00    +0.051 C 
BRANCH  60  61
ATOM     61  CE  LYS A   2       2.138  -3.640  25.035  0.00  0.00    +0.127 C 
BRANCH  61  62
ATOM     62  NZ  LYS A   2       3.586  -3.422  24.834  0.00  0.00    +0.219 N 
ATOM     63  HZ1 LYS A   2       4.146  -4.241  25.104  0.00  0.00    +0.199 HD
ATOM     64  HZ2 LYS A   2       3.885  -2.619  25.409  0.00  0.00    +0.199 HD
ATOM     65  HZ3 LYS A   2       3.803  -3.184  23.860  0.00  0.00    +0.199 HD
ENDBRANCH  61  62
ENDBRANCH  60  61
ENDBRANCH  59  60
ENDBRANCH  58  59
ENDBRANCH  47  58
ENDBRANCH  43  47
ENDBRANCH  42  44
BRANCH  42  66
ATOM     66  CB  LEU A   3       5.012  -6.805  27.579  0.00  0.00    +0.034 C 
BRANCH  66  67
ATOM     67  CG  LEU A   3       3.648  -6.447  26.953  0.00  0.00    -0.015 C 
ATOM     68  CD2 LEU A   3       2.476  -6.875  27.838  0.00  0.00    +0.007 C 
ATOM     69  CD1 LEU A   3       3.517  -7.110  25.579  0.00  0.00    +0.007 C 
ENDBRANCH  66  67
ENDBRANCH  42  66
ENDBRANCH  38  42
ENDBRANCH   1  40
BRANCH   1  70
ATOM     70  CB  GLN A   4       7.565  -5.427  23.676  0.00  0.00    +0.041 C 
BRANCH  70  71
ATOM     71  CG  GLN A   4       6.143  -5.970  23.562  0.00  0.00    +0.098 C 
BRANCH  71  72
ATOM     72  CD  GLN A   4       5.473  -5.393  22.328  0.00  0.00    +0.211 C 
ATOM     73  OE1 GLN A   4       4.416  -4.764  22.355  0.00  0.00    -0.276 OA
ATOM     74  NE2 GLN A   4       6.177  -5.549  21.172  0.00  0.00    -0.329 N 
ATOM     75 HE21 GLN A   4       5.777  -5.221  20.302  0.00  0.00    +0.145 HD
ATOM     76 HE22 GLN A   4       6.998  -6.140  21.103  0.00  0.00    +0.145 HD
ENDBRANCH  71  72
ENDBRANCH  70  71
ENDBRANCH   1  70
TORSDOF 32
ENDMDL
MODEL 8
REMARK VINA RESULT:      -5.4      2.336      8.812
REMARK  Name = PKLQSSQA-mmff94.pdb
REMARK  35 active torsions:
REMARK  status: ('A' for Active; 'I' for Inactive)
REMARK    1  A    between atoms: _2  and  _3
REMARK    2  A    between atoms: _15  and  _16
REMARK    3  A    between atoms: _16  and  _17
REMARK    4  A    between atoms: _16  and  _19
REMARK    5  A    between atoms: _19  and  _20
REMARK    6  A    between atoms: _20  and  _21
REMARK    7  A    between atoms: _21  and  _22
REMARK    8  A    between atoms: _22  and  _23
REMARK    9  A    between atoms: _37  and  _38
REMARK   10  A    between atoms: _38  and  _39
REMARK   11  A    between atoms: _38  and  _41
REMARK   12  A    between atoms: _41  and  _42
REMARK   13  A    between atoms: _42  and  _43
REMARK   14  A    between atoms: _42  and  _44
REMARK   15  A    between atoms: _56  and  _57
REMARK   16  A    between atoms: _57  and  _58
REMARK   17  A    between atoms: _57  and  _60
REMARK   18  A    between atoms: _60  and  _61
REMARK   19  A    between atoms: _61  and  _62
REMARK   20  A    between atoms: _73  and  _74
REMARK   21  A    between atoms: _74  and  _75
REMARK   22  A    between atoms: _74  and  _77
REMARK   23  A    between atoms: _77  and  _78
REMARK   24  A    between atoms: _84  and  _85
REMARK   25  A    between atoms: _85  and  _86
REMARK   26  A    between atoms: _85  and  _88
REMARK   27  A    between atoms: _88  and  _89
REMARK   28  A    between atoms: _95  and  _96
REMARK   29  A    between atoms: _96  and  _97
REMARK   30  A    between atoms: _96  and  _99
REMARK   31  A    between atoms: _99  and  _100
REMARK   32  A    between atoms: _100  and  _101
REMARK   33  A    between atoms: _112  and  _113
REMARK   34  A    between atoms: _113  and  _114
REMARK   35  A    between atoms: _113  and  _116
REMARK                            x       y       z     vdW  Elec       q    Type
REMARK                         _______ _______ _______ _____ _____    ______ ____
ROOT
ATOM      1  CA  GLN A   4      10.424   1.602  22.990  0.00  0.00    +0.159 C 
ENDROOT
BRANCH   1   2
ATOM      2  C   GLN A   4      10.503   0.690  24.232  0.00  0.00    +0.234 C 
ATOM      3  N   SER A   5       9.428  -0.130  24.448  0.00  0.00    -0.301 N 
ATOM      4  H   SER A   5       8.587  -0.081  23.878  0.00  0.00    +0.150 HD
ATOM      5  O   GLN A   4      11.492   0.683  24.964  0.00  0.00    -0.274 OA
BRANCH   3   6
ATOM      6  CA  SER A   5       9.395  -1.102  25.550  0.00  0.00    +0.184 C 
BRANCH   6   7
ATOM      7  C   SER A   5       8.945  -2.454  24.965  0.00  0.00    +0.236 C 
ATOM      8  O   SER A   5       8.945  -2.665  23.751  0.00  0.00    -0.274 OA
ATOM      9  N   SER A   6       8.601  -3.417  25.882  0.00  0.00    -0.300 N 
ATOM     10  H   SER A   6       8.526  -3.192  26.874  0.00  0.00    +0.150 HD
BRANCH   9  11
ATOM     11  CA  SER A   6       7.979  -4.690  25.494  0.00  0.00    +0.184 C 
BRANCH  11  12
ATOM     12  C   SER A   6       7.070  -5.124  26.660  0.00  0.00    +0.236 C 
ATOM     13  N   GLN A   7       5.774  -4.679  26.604  0.00  0.00    -0.302 N 
ATOM     14  H   GLN A   7       5.449  -4.094  25.837  0.00  0.00    +0.150 HD
ATOM     15  O   SER A   6       7.505  -5.801  27.592  0.00  0.00    -0.274 OA
BRANCH  13  16
ATOM     16  CA  GLN A   7       4.768  -5.025  27.613  0.00  0.00    +0.159 C 
BRANCH  16  17
ATOM     17  C   GLN A   7       3.534  -5.507  26.821  0.00  0.00    +0.234 C 
ATOM     18  O   GLN A   7       2.484  -5.814  27.385  0.00  0.00    -0.274 OA
ATOM     19  N   ALA A   8       3.699  -5.598  25.464  0.00  0.00    -0.305 N 
ATOM     20  H   ALA A   8       4.578  -5.334  25.023  0.00  0.00    +0.149 HD
BRANCH  19  21
ATOM     21  CA  ALA A   8       2.655  -6.094  24.576  0.00  0.00    +0.133 C 
ATOM     22  CB  ALA A   8       2.455  -5.188  23.372  0.00  0.00    +0.035 C 
BRANCH  21  23
ATOM     23  C   ALA A   8       3.059  -7.485  24.106  0.00  0.00    +0.245 C 
ATOM     24  O   ALA A   8       2.816  -8.509  24.743  0.00  0.00    -0.299 OA
ENDBRANCH  21  23
ENDBRANCH  19  21
ENDBRANCH  16  17
BRANCH  16  25
ATOM     25  CB  GLN A   7       4.439  -3.808  28.490  0.00  0.00    +0.041 C 
BRANCH  25  26
ATOM     26  CG  GLN A   7       4.779  -2.468  27.836  0.00  0.00    +0.098 C 
BRANCH  26  27
ATOM     27  CD  GLN A   7       3.604  -1.868  27.097  0.00  0.00    +0.211 C 
ATOM     28  NE2 GLN A   7       2.846  -0.979  27.794  0.00  0.00    -0.329 N 
ATOM     29 HE21 GLN A   7       3.073  -0.651  28.721  0.00  0.00    +0.145 HD
ATOM     30 HE22 GLN A   7       2.083  -0.535  27.299  0.00  0.00    +0.145 HD
ATOM     31  OE1 GLN A   7       3.352  -2.126  25.926  0.00  0.00    -0.276 OA
ENDBRANCH  26  27
ENDBRANCH  25  26
ENDBRANCH  16  25
ENDBRANCH  13  16
ENDBRANCH  11  12
BRANCH  11  32
ATOM     32  CB  SER A   6       9.016  -5.771  25.167  0.00  0.00    +0.187 C 
BRANCH  32  33
ATOM     33  OG  SER A   6      10.218  -5.594  25.917  0.00  0.00    -0.393 OA
ATOM     34  H   SER A   6      10.208  -6.265  26.623  0.00  0.00    +0.209 HD
ENDBRANCH  32  33
ENDBRANCH  11  32
ENDBRANCH   9  11
ENDBRANCH   6   7
BRANCH   6  35
ATOM     35  CB  SER A   5       8.477  -0.659  26.698  0.00  0.00    +0.187 C 
BRANCH  35  36
ATOM     36  OG  SER A   5       9.226  -0.350  27.874  0.00  0.00    -0.393 OA
ATOM     37  H   SER A   5      10.166  -0.397  27.631  0.00  0.00    +0.209 HD
ENDBRANCH  35  36
ENDBRANCH   6  35
ENDBRANCH   3   6
ENDBRANCH   1   2
BRANCH   1  40
ATOM     38  C   LEU A   3       8.887   0.257  21.564  0.00  0.00    +0.234 C 
ATOM     39  O   LEU A   3       9.763  -0.569  21.300  0.00  0.00    -0.274 OA
ATOM     40  N   GLN A   4       9.120   1.336  22.380  0.00  0.00    -0.302 N 
ATOM     41  H   GLN A   4       8.395   2.036  22.534  0.00  0.00    +0.150 HD
BRANCH  38  42
ATOM     42  CA  LEU A   3       7.458   0.171  20.977  0.00  0.00    +0.159 C 
BRANCH  42  44
ATOM     43  C   LYS A   2       6.287   0.792  23.087  0.00  0.00    +0.234 C 
ATOM     44  N   LEU A   3       6.630   1.063  21.784  0.00  0.00    -0.302 N 
ATOM     45  H   LEU A   3       6.490   1.997  21.413  0.00  0.00    +0.150 HD
ATOM     46  O   LYS A   2       6.511  -0.284  23.637  0.00  0.00    -0.274 OA
BRANCH  43  47
ATOM     47  CA  LYS A   2       5.648   1.975  23.837  0.00  0.00    +0.159 C 
BRANCH  47  50
ATOM     48  C   PRO A   1       5.179   1.567  26.227  0.00  0.00    +0.231 C 
ATOM     49  O   PRO A   1       3.980   1.376  26.009  0.00  0.00    -0.274 OA
ATOM     50  N   LYS A   2       6.066   1.886  25.229  0.00  0.00    -0.303 N 
ATOM     51  H   LYS A   2       7.033   2.104  25.448  0.00  0.00    +0.149 HD
BRANCH  48  57
ATOM     52  N   PRO A   1       7.052   2.239  27.701  0.00  0.00    -0.306 NA
ATOM     53  H   PRO A   1       7.086   2.807  26.846  0.00  0.00    +0.123 HD
ATOM     54  CD  PRO A   1       6.907   3.146  28.844  0.00  0.00    +0.081 C 
ATOM     55  CG  PRO A   1       5.414   3.351  28.995  0.00  0.00    +0.017 C 
ATOM     56  CB  PRO A   1       4.861   1.973  28.696  0.00  0.00    +0.029 C 
ATOM     57  CA  PRO A   1       5.806   1.432  27.628  0.00  0.00    +0.140 C 
ENDBRANCH  48  57
ENDBRANCH  47  50
BRANCH  47  58
ATOM     58  CB  LYS A   2       6.084   3.310  23.205  0.00  0.00    +0.032 C 
BRANCH  58  59
ATOM     59  CG  LYS A   2       4.900   4.128  22.684  0.00  0.00    +0.007 C 
BRANCH  59  60
ATOM     60  CD  LYS A   2       3.553   3.625  23.206  0.00  0.00    +0.051 C 
BRANCH  60  61
ATOM     61  CE  LYS A   2       2.619   3.367  22.029  0.00  0.00    +0.127 C 
BRANCH  61  62
ATOM     62  NZ  LYS A   2       3.392   2.893  20.863  0.00  0.00    +0.219 N 
ATOM     63  HZ1 LYS A   2       3.396   1.869  20.785  0.00  0.00    +0.199 HD
ATOM     64  HZ2 LYS A   2       4.367   3.217  20.957  0.00  0.00    +0.199 HD
ATOM     65  HZ3 LYS A   2       3.036   3.287  19.985  0.00  0.00    +0.199 HD
ENDBRANCH  61  62
ENDBRANCH  60  61
ENDBRANCH  59  60
ENDBRANCH  58  59
ENDBRANCH  47  58
ENDBRANCH  43  47
ENDBRANCH  42  44
BRANCH  42  66
ATOM     66  CB  LEU A   3       7.442   0.577  19.498  0.00  0.00    +0.034 C 
BRANCH  66  67
ATOM     67  CG  LEU A   3       6.292  -0.045  18.679  0.00  0.00    -0.015 C 
ATOM     68  CD2 LEU A   3       5.134   0.934  18.472  0.00  0.00    +0.007 C 
ATOM     69  CD1 LEU A   3       5.775  -1.303  19.382  0.00  0.00    +0.007 C 
ENDBRANCH  66  67
ENDBRANCH  42  66
ENDBRANCH  38  42
ENDBRANCH   1  40
BRANCH   1  70
ATOM     70  CB  GLN A   4      10.540   3.085  23.375  0.00  0.00    +0.041 C 
BRANCH  70  71
ATOM     71  CG  GLN A   4       9.393   3.576  24.255  0.00  0.00    +0.098 C 
BRANCH  71  72
ATOM     72  CD  GLN A   4       9.457   5.087  24.381  0.00  0.00    +0.211 C 
ATOM     73  OE1 GLN A   4      10.053   5.815  23.587  0.00  0.00    -0.276 OA
ATOM     74  NE2 GLN A   4       8.726   5.604  25.407  0.00  0.00    -0.329 N 
ATOM     75 HE21 GLN A   4       8.749   6.603  25.575  0.00  0.00    +0.145 HD
ATOM     76 HE22 GLN A   4       8.305   5.029  26.128  0.00  0.00    +0.145 HD
ENDBRANCH  71  72
ENDBRANCH  70  71
ENDBRANCH   1  70
TORSDOF 32
ENDMDL
MODEL 9
REMARK VINA RESULT:      -5.4      2.138      6.995
REMARK  Name = PKLQSSQA-mmff94.pdb
REMARK  35 active torsions:
REMARK  status: ('A' for Active; 'I' for Inactive)
REMARK    1  A    between atoms: _2  and  _3
REMARK    2  A    between atoms: _15  and  _16
REMARK    3  A    between atoms: _16  and  _17
REMARK    4  A    between atoms: _16  and  _19
REMARK    5  A    between atoms: _19  and  _20
REMARK    6  A    between atoms: _20  and  _21
REMARK    7  A    between atoms: _21  and  _22
REMARK    8  A    between atoms: _22  and  _23
REMARK    9  A    between atoms: _37  and  _38
REMARK   10  A    between atoms: _38  and  _39
REMARK   11  A    between atoms: _38  and  _41
REMARK   12  A    between atoms: _41  and  _42
REMARK   13  A    between atoms: _42  and  _43
REMARK   14  A    between atoms: _42  and  _44
REMARK   15  A    between atoms: _56  and  _57
REMARK   16  A    between atoms: _57  and  _58
REMARK   17  A    between atoms: _57  and  _60
REMARK   18  A    between atoms: _60  and  _61
REMARK   19  A    between atoms: _61  and  _62
REMARK   20  A    between atoms: _73  and  _74
REMARK   21  A    between atoms: _74  and  _75
REMARK   22  A    between atoms: _74  and  _77
REMARK   23  A    between atoms: _77  and  _78
REMARK   24  A    between atoms: _84  and  _85
REMARK   25  A    between atoms: _85  and  _86
REMARK   26  A    between atoms: _85  and  _88
REMARK   27  A    between atoms: _88  and  _89
REMARK   28  A    between atoms: _95  and  _96
REMARK   29  A    between atoms: _96  and  _97
REMARK   30  A    between atoms: _96  and  _99
REMARK   31  A    between atoms: _99  and  _100
REMARK   32  A    between atoms: _100  and  _101
REMARK   33  A    between atoms: _112  and  _113
REMARK   34  A    between atoms: _113  and  _114
REMARK   35  A    between atoms: _113  and  _116
REMARK                            x       y       z     vdW  Elec       q    Type
REMARK                         _______ _______ _______ _____ _____    ______ ____
ROOT
ATOM      1  CA  GLN A   4       3.771  -3.551  26.358  0.00  0.00    +0.159 C 
ENDROOT
BRANCH   1   2
ATOM      2  C   GLN A   4       3.716  -2.011  26.420  0.00  0.00    +0.234 C 
ATOM      3  N   SER A   5       2.991  -1.474  27.449  0.00  0.00    -0.301 N 
ATOM      4  H   SER A   5       2.445  -2.050  28.085  0.00  0.00    +0.150 HD
ATOM      5  O   GLN A   4       4.318  -1.310  25.606  0.00  0.00    -0.274 OA
BRANCH   3   6
ATOM      6  CA  SER A   5       2.908  -0.023  27.676  0.00  0.00    +0.184 C 
BRANCH   6   7
ATOM      7  C   SER A   5       4.207   0.412  28.379  0.00  0.00    +0.236 C 
ATOM      8  O   SER A   5       4.393   0.206  29.579  0.00  0.00    -0.274 OA
ATOM      9  N   SER A   6       5.157   0.991  27.574  0.00  0.00    -0.300 N 
ATOM     10  H   SER A   6       4.946   1.230  26.605  0.00  0.00    +0.150 HD
BRANCH   9  11
ATOM     11  CA  SER A   6       6.368   1.627  28.112  0.00  0.00    +0.184 C 
BRANCH  11  12
ATOM     12  C   SER A   6       6.884   2.601  27.036  0.00  0.00    +0.236 C 
ATOM     13  N   GLN A   7       6.724   2.195  25.737  0.00  0.00    -0.302 N 
ATOM     14  H   GLN A   7       6.297   1.299  25.512  0.00  0.00    +0.150 HD
ATOM     15  O   SER A   6       7.432   3.661  27.343  0.00  0.00    -0.274 OA
BRANCH  13  16
ATOM     16  CA  GLN A   7       7.130   3.013  24.589  0.00  0.00    +0.159 C 
BRANCH  16  17
ATOM     17  C   GLN A   7       5.855   3.757  24.139  0.00  0.00    +0.234 C 
ATOM     18  O   GLN A   7       5.894   4.650  23.293  0.00  0.00    -0.274 OA
ATOM     19  N   ALA A   8       4.695   3.377  24.761  0.00  0.00    -0.305 N 
ATOM     20  H   ALA A   8       4.691   2.632  25.455  0.00  0.00    +0.149 HD
BRANCH  19  21
ATOM     21  CA  ALA A   8       3.414   4.019  24.498  0.00  0.00    +0.133 C 
ATOM     22  CB  ALA A   8       2.637   3.310  23.401  0.00  0.00    +0.035 C 
BRANCH  21  23
ATOM     23  C   ALA A   8       2.606   4.003  25.788  0.00  0.00    +0.245 C 
ATOM     24  O   ALA A   8       2.874   3.275  26.743  0.00  0.00    -0.299 OA
ENDBRANCH  21  23
ENDBRANCH  19  21
ENDBRANCH  16  17
BRANCH  16  25
ATOM     25  CB  GLN A   7       7.699   2.131  23.468  0.00  0.00    +0.041 C 
BRANCH  25  26
ATOM     26  CG  GLN A   7       9.209   2.278  23.276  0.00  0.00    +0.098 C 
BRANCH  26  27
ATOM     27  CD  GLN A   7       9.976   1.072  23.768  0.00  0.00    +0.211 C 
ATOM     28  NE2 GLN A   7      10.119   0.960  25.117  0.00  0.00    -0.329 N 
ATOM     29 HE21 GLN A   7       9.682   1.579  25.782  0.00  0.00    +0.145 HD
ATOM     30 HE22 GLN A   7      10.591   0.134  25.464  0.00  0.00    +0.145 HD
ATOM     31  OE1 GLN A   7      10.420   0.213  23.016  0.00  0.00    -0.276 OA
ENDBRANCH  26  27
ENDBRANCH  25  26
ENDBRANCH  16  25
ENDBRANCH  13  16
ENDBRANCH  11  12
BRANCH  11  32
ATOM     32  CB  SER A   6       7.443   0.604  28.496  0.00  0.00    +0.187 C 
BRANCH  32  33
ATOM     33  OG  SER A   6       8.268   0.261  27.382  0.00  0.00    -0.393 OA
ATOM     34  H   SER A   6       8.585  -0.647  27.537  0.00  0.00    +0.209 HD
ENDBRANCH  32  33
ENDBRANCH  11  32
ENDBRANCH   9  11
ENDBRANCH   6   7
BRANCH   6  35
ATOM     35  CB  SER A   5       1.672   0.375  28.493  0.00  0.00    +0.187 C 
BRANCH  35  36
ATOM     36  OG  SER A   5       1.813   1.682  29.050  0.00  0.00    -0.393 OA
ATOM     37  H   SER A   5       1.567   2.314  28.353  0.00  0.00    +0.209 HD
ENDBRANCH  35  36
ENDBRANCH   6  35
ENDBRANCH   3   6
ENDBRANCH   1   2
BRANCH   1  40
ATOM     38  C   LEU A   3       3.917  -4.309  23.990  0.00  0.00    +0.234 C 
ATOM     39  O   LEU A   3       2.694  -4.442  23.897  0.00  0.00    -0.274 OA
ATOM     40  N   GLN A   4       4.521  -3.876  25.143  0.00  0.00    -0.302 N 
ATOM     41  H   GLN A   4       5.537  -3.832  25.211  0.00  0.00    +0.150 HD
BRANCH  38  42
ATOM     42  CA  LEU A   3       4.880  -4.647  22.827  0.00  0.00    +0.159 C 
BRANCH  42  44
ATOM     43  C   LYS A   2       6.075  -2.658  21.920  0.00  0.00    +0.234 C 
ATOM     44  N   LEU A   3       5.939  -3.642  22.869  0.00  0.00    -0.302 N 
ATOM     45  H   LEU A   3       6.450  -3.570  23.743  0.00  0.00    +0.150 HD
ATOM     46  O   LYS A   2       5.421  -2.625  20.879  0.00  0.00    -0.274 OA
BRANCH  43  47
ATOM     47  CA  LYS A   2       7.074  -1.548  22.292  0.00  0.00    +0.159 C 
BRANCH  47  50
ATOM     48  C   PRO A   1       8.047  -1.740  24.554  0.00  0.00    +0.231 C 
ATOM     49  O   PRO A   1       7.290  -0.878  25.006  0.00  0.00    -0.274 OA
ATOM     50  N   LYS A   2       8.028  -2.116  23.234  0.00  0.00    -0.303 N 
ATOM     51  H   LYS A   2       8.710  -2.779  22.876  0.00  0.00    +0.149 HD
BRANCH  48  57
ATOM     52  N   PRO A   1       8.404  -2.962  26.678  0.00  0.00    -0.306 NA
ATOM     53  H   PRO A   1       7.398  -2.790  26.562  0.00  0.00    +0.123 HD
ATOM     54  CD  PRO A   1       8.611  -4.412  26.761  0.00  0.00    +0.081 C 
ATOM     55  CG  PRO A   1       8.760  -4.870  25.325  0.00  0.00    +0.017 C 
ATOM     56  CB  PRO A   1       9.566  -3.748  24.704  0.00  0.00    +0.029 C 
ATOM     57  CA  PRO A   1       9.062  -2.503  25.427  0.00  0.00    +0.140 C 
ENDBRANCH  48  57
ENDBRANCH  47  50
BRANCH  47  58
ATOM     58  CB  LYS A   2       7.781  -1.014  21.032  0.00  0.00    +0.032 C 
BRANCH  58  59
ATOM     59  CG  LYS A   2       7.077   0.207  20.436  0.00  0.00    +0.007 C 
BRANCH  59  60
ATOM     60  CD  LYS A   2       7.362   0.389  18.944  0.00  0.00    +0.051 C 
BRANCH  60  61
ATOM     61  CE  LYS A   2       6.095   0.862  18.240  0.00  0.00    +0.127 C 
BRANCH  61  62
ATOM     62  NZ  LYS A   2       5.291  -0.300  17.812  0.00  0.00    +0.219 N 
ATOM     63  HZ1 LYS A   2       4.705  -0.091  16.993  0.00  0.00    +0.199 HD
ATOM     64  HZ2 LYS A   2       4.675  -0.583  18.589  0.00  0.00    +0.199 HD
ATOM     65  HZ3 LYS A   2       5.880  -1.111  17.594  0.00  0.00    +0.199 HD
ENDBRANCH  61  62
ENDBRANCH  60  61
ENDBRANCH  59  60
ENDBRANCH  58  59
ENDBRANCH  47  58
ENDBRANCH  43  47
ENDBRANCH  42  44
BRANCH  42  66
ATOM     66  CB  LEU A   3       5.446  -6.065  22.972  0.00  0.00    +0.034 C 
BRANCH  66  67
ATOM     67  CG  LEU A   3       6.463  -6.460  21.881  0.00  0.00    -0.015 C 
ATOM     68  CD2 LEU A   3       7.858  -5.897  22.159  0.00  0.00    +0.007 C 
ATOM     69  CD1 LEU A   3       5.977  -5.965  20.516  0.00  0.00    +0.007 C 
ENDBRANCH  66  67
ENDBRANCH  42  66
ENDBRANCH  38  42
ENDBRANCH   1  40
BRANCH   1  70
ATOM     70  CB  GLN A   4       4.474  -4.137  27.592  0.00  0.00    +0.041 C 
BRANCH  70  71
ATOM     71  CG  GLN A   4       4.023  -5.555  27.932  0.00  0.00    +0.098 C 
BRANCH  71  72
ATOM     72  CD  GLN A   4       5.108  -6.543  27.544  0.00  0.00    +0.211 C 
ATOM     73  OE1 GLN A   4       5.716  -6.506  26.474  0.00  0.00    -0.276 OA
ATOM     74  NE2 GLN A   4       5.432  -7.444  28.514  0.00  0.00    -0.329 N 
ATOM     75 HE21 GLN A   4       6.123  -8.156  28.314  0.00  0.00    +0.145 HD
ATOM     76 HE22 GLN A   4       4.889  -7.558  29.362  0.00  0.00    +0.145 HD
ENDBRANCH  71  72
ENDBRANCH  70  71
ENDBRANCH   1  70
TORSDOF 32
ENDMDL
MODEL 10
REMARK VINA RESULT:      -5.4      1.739      2.747
REMARK  Name = PKLQSSQA-mmff94.pdb
REMARK  35 active torsions:
REMARK  status: ('A' for Active; 'I' for Inactive)
REMARK    1  A    between atoms: _2  and  _3
REMARK    2  A    between atoms: _15  and  _16
REMARK    3  A    between atoms: _16  and  _17
REMARK    4  A    between atoms: _16  and  _19
REMARK    5  A    between atoms: _19  and  _20
REMARK    6  A    between atoms: _20  and  _21
REMARK    7  A    between atoms: _21  and  _22
REMARK    8  A    between atoms: _22  and  _23
REMARK    9  A    between atoms: _37  and  _38
REMARK   10  A    between atoms: _38  and  _39
REMARK   11  A    between atoms: _38  and  _41
REMARK   12  A    between atoms: _41  and  _42
REMARK   13  A    between atoms: _42  and  _43
REMARK   14  A    between atoms: _42  and  _44
REMARK   15  A    between atoms: _56  and  _57
REMARK   16  A    between atoms: _57  and  _58
REMARK   17  A    between atoms: _57  and  _60
REMARK   18  A    between atoms: _60  and  _61
REMARK   19  A    between atoms: _61  and  _62
REMARK   20  A    between atoms: _73  and  _74
REMARK   21  A    between atoms: _74  and  _75
REMARK   22  A    between atoms: _74  and  _77
REMARK   23  A    between atoms: _77  and  _78
REMARK   24  A    between atoms: _84  and  _85
REMARK   25  A    between atoms: _85  and  _86
REMARK   26  A    between atoms: _85  and  _88
REMARK   27  A    between atoms: _88  and  _89
REMARK   28  A    between atoms: _95  and  _96
REMARK   29  A    between atoms: _96  and  _97
REMARK   30  A    between atoms: _96  and  _99
REMARK   31  A    between atoms: _99  and  _100
REMARK   32  A    between atoms: _100  and  _101
REMARK   33  A    between atoms: _112  and  _113
REMARK   34  A    between atoms: _113  and  _114
REMARK   35  A    between atoms: _113  and  _116
REMARK                            x       y       z     vdW  Elec       q    Type
REMARK                         _______ _______ _______ _____ _____    ______ ____
ROOT
ATOM      1  CA  GLN A   4       8.463  -1.624  23.892  0.00  0.00    +0.159 C 
ENDROOT
BRANCH   1   2
ATOM      2  C   GLN A   4       8.116  -1.531  22.392  0.00  0.00    +0.234 C 
ATOM      3  N   SER A   5       7.218  -0.559  22.039  0.00  0.00    -0.301 N 
ATOM      4  H   SER A   5       6.738   0.010  22.731  0.00  0.00    +0.150 HD
ATOM      5  O   GLN A   4       8.644  -2.270  21.561  0.00  0.00    -0.274 OA
BRANCH   3   6
ATOM      6  CA  SER A   5       6.848  -0.307  20.639  0.00  0.00    +0.184 C 
BRANCH   6   7
ATOM      7  C   SER A   5       6.127   1.052  20.585  0.00  0.00    +0.236 C 
ATOM      8  O   SER A   5       5.624   1.477  19.544  0.00  0.00    -0.274 OA
ATOM      9  N   SER A   6       6.036   1.727  21.778  0.00  0.00    -0.300 N 
ATOM     10  H   SER A   6       6.534   1.398  22.604  0.00  0.00    +0.150 HD
BRANCH   9  11
ATOM     11  CA  SER A   6       5.548   3.110  21.868  0.00  0.00    +0.184 C 
BRANCH  11  12
ATOM     12  C   SER A   6       6.579   3.903  22.692  0.00  0.00    +0.236 C 
ATOM     13  N   GLN A   7       6.705   3.532  24.006  0.00  0.00    -0.302 N 
ATOM     14  H   GLN A   7       6.140   2.783  24.400  0.00  0.00    +0.150 HD
ATOM     15  O   SER A   6       7.220   4.830  22.194  0.00  0.00    -0.274 OA
BRANCH  13  16
ATOM     16  CA  GLN A   7       7.662   4.159  24.924  0.00  0.00    +0.159 C 
BRANCH  16  17
ATOM     17  C   GLN A   7       9.058   3.743  24.416  0.00  0.00    +0.234 C 
ATOM     18  O   GLN A   7       9.895   4.577  24.072  0.00  0.00    -0.274 OA
ATOM     19  N   ALA A   8       9.287   2.394  24.347  0.00  0.00    -0.305 N 
ATOM     20  H   ALA A   8       8.578   1.725  24.641  0.00  0.00    +0.149 HD
BRANCH  19  21
ATOM     21  CA  ALA A   8      10.529   1.831  23.832  0.00  0.00    +0.133 C 
ATOM     22  CB  ALA A   8      11.003   0.648  24.660  0.00  0.00    +0.035 C 
BRANCH  21  23
ATOM     23  C   ALA A   8      10.284   1.385  22.398  0.00  0.00    +0.245 C 
ATOM     24  O   ALA A   8       9.328   1.768  21.725  0.00  0.00    -0.299 OA
ENDBRANCH  21  23
ENDBRANCH  19  21
ENDBRANCH  16  17
BRANCH  16  25
ATOM     25  CB  GLN A   7       7.419   3.689  26.366  0.00  0.00    +0.041 C 
BRANCH  25  26
ATOM     26  CG  GLN A   7       5.986   3.911  26.852  0.00  0.00    +0.098 C 
BRANCH  26  27
ATOM     27  CD  GLN A   7       5.879   3.911  28.360  0.00  0.00    +0.211 C 
ATOM     28  NE2 GLN A   7       4.694   4.332  28.879  0.00  0.00    -0.329 N 
ATOM     29 HE21 GLN A   7       3.884   4.558  28.321  0.00  0.00    +0.145 HD
ATOM     30 HE22 GLN A   7       4.591   4.295  29.885  0.00  0.00    +0.145 HD
ATOM     31  OE1 GLN A   7       6.783   3.523  29.092  0.00  0.00    -0.276 OA
ENDBRANCH  26  27
ENDBRANCH  25  26
ENDBRANCH  16  25
ENDBRANCH  13  16
ENDBRANCH  11  12
BRANCH  11  32
ATOM     32  CB  SER A   6       4.151   3.197  22.495  0.00  0.00    +0.187 C 
BRANCH  32  33
ATOM     33  OG  SER A   6       3.132   2.822  21.568  0.00  0.00    -0.393 OA
ATOM     34  H   SER A   6       3.255   1.873  21.384  0.00  0.00    +0.209 HD
ENDBRANCH  32  33
ENDBRANCH  11  32
ENDBRANCH   9  11
ENDBRANCH   6   7
BRANCH   6  35
ATOM     35  CB  SER A   5       5.975  -1.424  20.051  0.00  0.00    +0.187 C 
BRANCH  35  36
ATOM     36  OG  SER A   5       5.678  -1.184  18.675  0.00  0.00    -0.393 OA
ATOM     37  H   SER A   5       4.714  -1.256  18.577  0.00  0.00    +0.209 HD
ENDBRANCH  35  36
ENDBRANCH   6  35
ENDBRANCH   3   6
ENDBRANCH   1   2
BRANCH   1  40
ATOM     38  C   LEU A   3       6.493  -0.596  25.017  0.00  0.00    +0.234 C 
ATOM     39  O   LEU A   3       6.906   0.549  24.820  0.00  0.00    -0.274 OA
ATOM     40  N   GLN A   4       7.181  -1.706  24.594  0.00  0.00    -0.302 N 
ATOM     41  H   GLN A   4       6.847  -2.641  24.822  0.00  0.00    +0.150 HD
BRANCH  38  42
ATOM     42  CA  LEU A   3       5.181  -0.886  25.783  0.00  0.00    +0.159 C 
BRANCH  42  44
ATOM     43  C   LYS A   2       3.783  -2.945  25.662  0.00  0.00    +0.234 C 
ATOM     44  N   LEU A   3       5.010  -2.336  25.767  0.00  0.00    -0.302 N 
ATOM     45  H   LEU A   3       5.854  -2.882  25.626  0.00  0.00    +0.150 HD
ATOM     46  O   LYS A   2       2.716  -2.336  25.726  0.00  0.00    -0.274 OA
BRANCH  43  47
ATOM     47  CA  LYS A   2       3.844  -4.459  25.388  0.00  0.00    +0.159 C 
BRANCH  47  50
ATOM     48  C   PRO A   1       4.589  -6.256  26.908  0.00  0.00    +0.231 C 
ATOM     49  O   PRO A   1       5.292  -6.770  26.034  0.00  0.00    -0.274 OA
ATOM     50  N   LYS A   2       3.830  -5.136  26.676  0.00  0.00    -0.303 N 
ATOM     51  H   LYS A   2       3.209  -4.776  27.395  0.00  0.00    +0.149 HD
BRANCH  48  57
ATOM     52  N   PRO A   1       5.884  -7.160  28.816  0.00  0.00    -0.306 NA
ATOM     53  H   PRO A   1       6.541  -6.807  28.110  0.00  0.00    +0.123 HD
ATOM     54  CD  PRO A   1       6.119  -6.425  30.064  0.00  0.00    +0.081 C 
ATOM     55  CG  PRO A   1       5.251  -5.189  29.962  0.00  0.00    +0.017 C 
ATOM     56  CB  PRO A   1       3.996  -5.723  29.301  0.00  0.00    +0.029 C 
ATOM     57  CA  PRO A   1       4.520  -6.794  28.350  0.00  0.00    +0.140 C 
ENDBRANCH  48  57
ENDBRANCH  47  50
BRANCH  47  58
ATOM     58  CB  LYS A   2       2.655  -4.895  24.511  0.00  0.00    +0.032 C 
BRANCH  58  59
ATOM     59  CG  LYS A   2       3.069  -5.855  23.394  0.00  0.00    +0.007 C 
BRANCH  59  60
ATOM     60  CD  LYS A   2       2.210  -7.120  23.347  0.00  0.00    +0.051 C 
BRANCH  60  61
ATOM     61  CE  LYS A   2       1.724  -7.455  24.752  0.00  0.00    +0.127 C 
BRANCH  61  62
ATOM     62  NZ  LYS A   2       2.564  -8.521  25.337  0.00  0.00    +0.219 N 
ATOM     63  HZ1 LYS A   2       3.165  -8.175  26.094  0.00  0.00    +0.199 HD
ATOM     64  HZ2 LYS A   2       3.165  -8.915  24.597  0.00  0.00    +0.199 HD
ATOM     65  HZ3 LYS A   2       1.996  -9.297  25.698  0.00  0.00    +0.199 HD
ENDBRANCH  61  62
ENDBRANCH  60  61
ENDBRANCH  59  60
ENDBRANCH  58  59
ENDBRANCH  47  58
ENDBRANCH  43  47
ENDBRANCH  42  44
BRANCH  42  66
ATOM     66  CB  LEU A   3       5.245  -0.344  27.217  0.00  0.00    +0.034 C 
BRANCH  66  67
ATOM     67  CG  LEU A   3       3.911   0.228  27.742  0.00  0.00    -0.015 C 
ATOM     68  CD2 LEU A   3       3.388   1.370  26.869  0.00  0.00    +0.007 C 
ATOM     69  CD1 LEU A   3       4.091   0.726  29.179  0.00  0.00    +0.007 C 
ENDBRANCH  66  67
ENDBRANCH  42  66
ENDBRANCH  38  42
ENDBRANCH   1  40
BRANCH   1  70
ATOM     70  CB  GLN A   4       9.316  -2.865  24.193  0.00  0.00    +0.041 C 
BRANCH  70  71
ATOM     71  CG  GLN A   4       8.989  -3.517  25.535  0.00  0.00    +0.098 C 
BRANCH  71  72
ATOM     72  CD  GLN A   4       8.868  -5.019  25.357  0.00  0.00    +0.211 C 
ATOM     73  OE1 GLN A   4       9.384  -5.642  24.429  0.00  0.00    -0.276 OA
ATOM     74  NE2 GLN A   4       8.205  -5.660  26.360  0.00  0.00    -0.329 N 
ATOM     75 HE21 GLN A   4       8.054  -6.659  26.292  0.00  0.00    +0.145 HD
ATOM     76 HE22 GLN A   4       7.691  -5.168  27.082  0.00  0.00    +0.145 HD
ENDBRANCH  71  72
ENDBRANCH  70  71
ENDBRANCH   1  70
TORSDOF 32
ENDMDL
MODEL 11
REMARK VINA RESULT:      -5.4      1.752      5.772
REMARK  Name = PKLQSSQA-mmff94.pdb
REMARK  35 active torsions:
REMARK  status: ('A' for Active; 'I' for Inactive)
REMARK    1  A    between atoms: _2  and  _3
REMARK    2  A    between atoms: _15  and  _16
REMARK    3  A    between atoms: _16  and  _17
REMARK    4  A    between atoms: _16  and  _19
REMARK    5  A    between atoms: _19  and  _20
REMARK    6  A    between atoms: _20  and  _21
REMARK    7  A    between atoms: _21  and  _22
REMARK    8  A    between atoms: _22  and  _23
REMARK    9  A    between atoms: _37  and  _38
REMARK   10  A    between atoms: _38  and  _39
REMARK   11  A    between atoms: _38  and  _41
REMARK   12  A    between atoms: _41  and  _42
REMARK   13  A    between atoms: _42  and  _43
REMARK   14  A    between atoms: _42  and  _44
REMARK   15  A    between atoms: _56  and  _57
REMARK   16  A    between atoms: _57  and  _58
REMARK   17  A    between atoms: _57  and  _60
REMARK   18  A    between atoms: _60  and  _61
REMARK   19  A    between atoms: _61  and  _62
REMARK   20  A    between atoms: _73  and  _74
REMARK   21  A    between atoms: _74  and  _75
REMARK   22  A    between atoms: _74  and  _77
REMARK   23  A    between atoms: _77  and  _78
REMARK   24  A    between atoms: _84  and  _85
REMARK   25  A    between atoms: _85  and  _86
REMARK   26  A    between atoms: _85  and  _88
REMARK   27  A    between atoms: _88  and  _89
REMARK   28  A    between atoms: _95  and  _96
REMARK   29  A    between atoms: _96  and  _97
REMARK   30  A    between atoms: _96  and  _99
REMARK   31  A    between atoms: _99  and  _100
REMARK   32  A    between atoms: _100  and  _101
REMARK   33  A    between atoms: _112  and  _113
REMARK   34  A    between atoms: _113  and  _114
REMARK   35  A    between atoms: _113  and  _116
REMARK                            x       y       z     vdW  Elec       q    Type
REMARK                         _______ _______ _______ _____ _____    ______ ____
ROOT
ATOM      1  CA  GLN A   4       4.429   2.862  23.828  0.00  0.00    +0.159 C 
ENDROOT
BRANCH   1   2
ATOM      2  C   GLN A   4       5.737   3.592  23.461  0.00  0.00    +0.234 C 
ATOM      3  N   SER A   5       6.865   3.174  24.114  0.00  0.00    -0.301 N 
ATOM      4  H   SER A   5       6.835   2.486  24.862  0.00  0.00    +0.150 HD
ATOM      5  O   GLN A   4       5.764   4.478  22.606  0.00  0.00    -0.274 OA
BRANCH   3   6
ATOM      6  CA  SER A   5       8.194   3.730  23.815  0.00  0.00    +0.184 C 
BRANCH   6   7
ATOM      7  C   SER A   5       9.236   2.641  24.134  0.00  0.00    +0.236 C 
ATOM      8  O   SER A   5      10.441   2.831  23.966  0.00  0.00    -0.274 OA
ATOM      9  N   SER A   6       8.739   1.476  24.665  0.00  0.00    -0.300 N 
ATOM     10  H   SER A   6       7.734   1.310  24.713  0.00  0.00    +0.150 HD
BRANCH   9  11
ATOM     11  CA  SER A   6       9.567   0.277  24.852  0.00  0.00    +0.184 C 
BRANCH  11  12
ATOM     12  C   SER A   6       9.308  -0.646  23.646  0.00  0.00    +0.236 C 
ATOM     13  N   GLN A   7       8.008  -0.716  23.217  0.00  0.00    -0.302 N 
ATOM     14  H   GLN A   7       7.269  -0.192  23.681  0.00  0.00    +0.150 HD
ATOM     15  O   SER A   6      10.218  -1.296  23.131  0.00  0.00    -0.274 OA
BRANCH  13  16
ATOM     16  CA  GLN A   7       7.590  -1.520  22.064  0.00  0.00    +0.159 C 
BRANCH  16  17
ATOM     17  C   GLN A   7       7.590  -0.553  20.862  0.00  0.00    +0.234 C 
ATOM     18  O   GLN A   7       8.638  -0.167  20.344  0.00  0.00    -0.274 OA
ATOM     19  N   ALA A   8       6.357  -0.136  20.436  0.00  0.00    -0.305 N 
ATOM     20  H   ALA A   8       5.506  -0.474  20.880  0.00  0.00    +0.149 HD
BRANCH  19  21
ATOM     21  CA  ALA A   8       6.181   0.824  19.353  0.00  0.00    +0.133 C 
ATOM     22  CB  ALA A   8       5.829   0.143  18.041  0.00  0.00    +0.035 C 
BRANCH  21  23
ATOM     23  C   ALA A   8       5.064   1.779  19.748  0.00  0.00    +0.245 C 
ATOM     24  O   ALA A   8       4.058   1.960  19.063  0.00  0.00    -0.299 OA
ENDBRANCH  21  23
ENDBRANCH  19  21
ENDBRANCH  16  17
BRANCH  16  25
ATOM     25  CB  GLN A   7       6.201  -2.130  22.302  0.00  0.00    +0.041 C 
BRANCH  25  26
ATOM     26  CG  GLN A   7       6.101  -3.604  21.907  0.00  0.00    +0.098 C 
BRANCH  26  27
ATOM     27  CD  GLN A   7       5.044  -4.345  22.696  0.00  0.00    +0.211 C 
ATOM     28  NE2 GLN A   7       4.517  -3.684  23.763  0.00  0.00    -0.329 N 
ATOM     29 HE21 GLN A   7       4.732  -2.726  23.993  0.00  0.00    +0.145 HD
ATOM     30 HE22 GLN A   7       3.776  -4.149  24.273  0.00  0.00    +0.145 HD
ATOM     31  OE1 GLN A   7       4.644  -5.461  22.388  0.00  0.00    -0.276 OA
ENDBRANCH  26  27
ENDBRANCH  25  26
ENDBRANCH  16  25
ENDBRANCH  13  16
ENDBRANCH  11  12
BRANCH  11  32
ATOM     32  CB  SER A   6       9.267  -0.440  26.174  0.00  0.00    +0.187 C 
BRANCH  32  33
ATOM     33  OG  SER A   6       7.954  -1.001  26.183  0.00  0.00    -0.393 OA
ATOM     34  H   SER A   6       7.678  -1.051  27.117  0.00  0.00    +0.209 HD
ENDBRANCH  32  33
ENDBRANCH  11  32
ENDBRANCH   9  11
ENDBRANCH   6   7
BRANCH   6  35
ATOM     35  CB  SER A   5       8.481   5.021  24.594  0.00  0.00    +0.187 C 
BRANCH  35  36
ATOM     36  OG  SER A   5       8.430   4.801  26.004  0.00  0.00    -0.393 OA
ATOM     37  H   SER A   5       8.428   5.676  26.427  0.00  0.00    +0.209 HD
ENDBRANCH  35  36
ENDBRANCH   6  35
ENDBRANCH   3   6
ENDBRANCH   1   2
BRANCH   1  40
ATOM     38  C   LEU A   3       5.149   1.178  25.516  0.00  0.00    +0.234 C 
ATOM     39  O   LEU A   3       5.542   0.393  24.649  0.00  0.00    -0.274 OA
ATOM     40  N   GLN A   4       4.602   2.398  25.206  0.00  0.00    -0.302 N 
ATOM     41  H   GLN A   4       4.231   3.001  25.938  0.00  0.00    +0.150 HD
BRANCH  38  42
ATOM     42  CA  LEU A   3       5.206   0.846  27.026  0.00  0.00    +0.159 C 
BRANCH  42  44
ATOM     43  C   LYS A   2       4.475  -1.401  27.815  0.00  0.00    +0.234 C 
ATOM     44  N   LEU A   3       5.352  -0.604  27.120  0.00  0.00    -0.302 N 
ATOM     45  H   LEU A   3       6.013  -1.027  26.476  0.00  0.00    +0.150 HD
ATOM     46  O   LYS A   2       3.586  -0.960  28.540  0.00  0.00    -0.274 OA
BRANCH  43  47
ATOM     47  CA  LYS A   2       4.649  -2.910  27.563  0.00  0.00    +0.159 C 
BRANCH  47  50
ATOM     48  C   PRO A   1       6.485  -4.264  26.617  0.00  0.00    +0.231 C 
ATOM     49  O   PRO A   1       5.707  -5.140  26.234  0.00  0.00    -0.274 OA
ATOM     50  N   LYS A   2       6.060  -3.148  27.294  0.00  0.00    -0.303 N 
ATOM     51  H   LYS A   2       6.731  -2.477  27.657  0.00  0.00    +0.149 HD
BRANCH  48  57
ATOM     52  N   PRO A   1       8.486  -5.714  26.459  0.00  0.00    -0.306 NA
ATOM     53  H   PRO A   1       7.653  -6.310  26.532  0.00  0.00    +0.123 HD
ATOM     54  CD  PRO A   1       9.166  -6.034  25.199  0.00  0.00    +0.081 C 
ATOM     55  CG  PRO A   1       8.513  -5.143  24.164  0.00  0.00    +0.017 C 
ATOM     56  CB  PRO A   1       8.310  -3.849  24.926  0.00  0.00    +0.029 C 
ATOM     57  CA  PRO A   1       8.001  -4.314  26.345  0.00  0.00    +0.140 C 
ENDBRANCH  48  57
ENDBRANCH  47  50
BRANCH  47  58
ATOM     58  CB  LYS A   2       4.166  -3.718  28.782  0.00  0.00    +0.032 C 
BRANCH  58  59
ATOM     59  CG  LYS A   2       2.905  -4.533  28.485  0.00  0.00    +0.007 C 
BRANCH  59  60
ATOM     60  CD  LYS A   2       3.145  -6.043  28.542  0.00  0.00    +0.051 C 
BRANCH  60  61
ATOM     61  CE  LYS A   2       4.467  -6.319  29.248  0.00  0.00    +0.127 C 
BRANCH  61  62
ATOM     62  NZ  LYS A   2       5.259  -7.298  28.474  0.00  0.00    +0.219 N 
ATOM     63  HZ1 LYS A   2       6.253  -7.043  28.422  0.00  0.00    +0.199 HD
ATOM     64  HZ2 LYS A   2       4.884  -7.345  27.515  0.00  0.00    +0.199 HD
ATOM     65  HZ3 LYS A   2       5.183  -8.243  28.866  0.00  0.00    +0.199 HD
ENDBRANCH  61  62
ENDBRANCH  60  61
ENDBRANCH  59  60
ENDBRANCH  58  59
ENDBRANCH  47  58
ENDBRANCH  43  47
ENDBRANCH  42  44
BRANCH  42  66
ATOM     66  CB  LEU A   3       6.371   1.573  27.709  0.00  0.00    +0.034 C 
BRANCH  66  67
ATOM     67  CG  LEU A   3       6.002   2.260  29.040  0.00  0.00    -0.015 C 
ATOM     68  CD2 LEU A   3       6.233   1.346  30.246  0.00  0.00    +0.007 C 
ATOM     69  CD1 LEU A   3       4.535   2.698  29.008  0.00  0.00    +0.007 C 
ENDBRANCH  66  67
ENDBRANCH  42  66
ENDBRANCH  38  42
ENDBRANCH   1  40
BRANCH   1  70
ATOM     70  CB  GLN A   4       3.217   3.801  23.730  0.00  0.00    +0.041 C 
BRANCH  70  71
ATOM     71  CG  GLN A   4       1.996   3.151  23.082  0.00  0.00    +0.098 C 
BRANCH  71  72
ATOM     72  CD  GLN A   4       2.084   3.290  21.574  0.00  0.00    +0.211 C 
ATOM     73  OE1 GLN A   4       2.584   4.260  21.004  0.00  0.00    -0.276 OA
ATOM     74  NE2 GLN A   4       1.638   2.209  20.875  0.00  0.00    -0.329 N 
ATOM     75 HE21 GLN A   4       1.632   2.243  19.863  0.00  0.00    +0.145 HD
ATOM     76 HE22 GLN A   4       1.138   1.441  21.309  0.00  0.00    +0.145 HD
ENDBRANCH  71  72
ENDBRANCH  70  71
ENDBRANCH   1  70
TORSDOF 32
ENDMDL
MODEL 12
REMARK VINA RESULT:      -5.4      2.124      8.298
REMARK  Name = PKLQSSQA-mmff94.pdb
REMARK  35 active torsions:
REMARK  status: ('A' for Active; 'I' for Inactive)
REMARK    1  A    between atoms: _2  and  _3
REMARK    2  A    between atoms: _15  and  _16
REMARK    3  A    between atoms: _16  and  _17
REMARK    4  A    between atoms: _16  and  _19
REMARK    5  A    between atoms: _19  and  _20
REMARK    6  A    between atoms: _20  and  _21
REMARK    7  A    between atoms: _21  and  _22
REMARK    8  A    between atoms: _22  and  _23
REMARK    9  A    between atoms: _37  and  _38
REMARK   10  A    between atoms: _38  and  _39
REMARK   11  A    between atoms: _38  and  _41
REMARK   12  A    between atoms: _41  and  _42
REMARK   13  A    between atoms: _42  and  _43
REMARK   14  A    between atoms: _42  and  _44
REMARK   15  A    between atoms: _56  and  _57
REMARK   16  A    between atoms: _57  and  _58
REMARK   17  A    between atoms: _57  and  _60
REMARK   18  A    between atoms: _60  and  _61
REMARK   19  A    between atoms: _61  and  _62
REMARK   20  A    between atoms: _73  and  _74
REMARK   21  A    between atoms: _74  and  _75
REMARK   22  A    between atoms: _74  and  _77
REMARK   23  A    between atoms: _77  and  _78
REMARK   24  A    between atoms: _84  and  _85
REMARK   25  A    between atoms: _85  and  _86
REMARK   26  A    between atoms: _85  and  _88
REMARK   27  A    between atoms: _88  and  _89
REMARK   28  A    between atoms: _95  and  _96
REMARK   29  A    between atoms: _96  and  _97
REMARK   30  A    between atoms: _96  and  _99
REMARK   31  A    between atoms: _99  and  _100
REMARK   32  A    between atoms: _100  and  _101
REMARK   33  A    between atoms: _112  and  _113
REMARK   34  A    between atoms: _113  and  _114
REMARK   35  A    between atoms: _113  and  _116
REMARK                            x       y       z     vdW  Elec       q    Type
REMARK                         _______ _______ _______ _____ _____    ______ ____
ROOT
ATOM      1  CA  GLN A   4       8.683  -2.151  23.582  0.00  0.00    +0.159 C 
ENDROOT
BRANCH   1   2
ATOM      2  C   GLN A   4       7.392  -2.711  22.949  0.00  0.00    +0.234 C 
ATOM      3  N   SER A   5       7.369  -4.060  22.719  0.00  0.00    -0.301 N 
ATOM      4  H   SER A   5       8.183  -4.650  22.872  0.00  0.00    +0.150 HD
ATOM      5  O   GLN A   4       6.431  -1.985  22.696  0.00  0.00    -0.274 OA
BRANCH   3   6
ATOM      6  CA  SER A   5       6.179  -4.742  22.188  0.00  0.00    +0.184 C 
BRANCH   6   7
ATOM      7  C   SER A   5       5.362  -5.255  23.387  0.00  0.00    +0.236 C 
ATOM      8  O   SER A   5       5.838  -5.300  24.523  0.00  0.00    -0.274 OA
ATOM      9  N   SER A   6       4.061  -5.603  23.118  0.00  0.00    -0.300 N 
ATOM     10  H   SER A   6       3.717  -5.640  22.159  0.00  0.00    +0.150 HD
BRANCH   9  11
ATOM     11  CA  SER A   6       3.204  -6.280  24.102  0.00  0.00    +0.184 C 
BRANCH  11  12
ATOM     12  C   SER A   6       2.850  -5.244  25.184  0.00  0.00    +0.236 C 
ATOM     13  N   GLN A   7       3.227  -5.563  26.463  0.00  0.00    -0.302 N 
ATOM     14  H   GLN A   7       3.705  -6.438  26.670  0.00  0.00    +0.150 HD
ATOM     15  O   SER A   6       2.237  -4.212  24.906  0.00  0.00    -0.274 OA
BRANCH  13  16
ATOM     16  CA  GLN A   7       2.997  -4.676  27.608  0.00  0.00    +0.159 C 
BRANCH  16  17
ATOM     17  C   GLN A   7       3.982  -3.502  27.428  0.00  0.00    +0.234 C 
ATOM     18  O   GLN A   7       5.199  -3.660  27.517  0.00  0.00    -0.274 OA
ATOM     19  N   ALA A   8       3.410  -2.279  27.196  0.00  0.00    -0.305 N 
ATOM     20  H   ALA A   8       2.400  -2.177  27.123  0.00  0.00    +0.149 HD
BRANCH  19  21
ATOM     21  CA  ALA A   8       4.192  -1.057  27.063  0.00  0.00    +0.133 C 
ATOM     22  CB  ALA A   8       4.821  -0.930  25.685  0.00  0.00    +0.035 C 
BRANCH  21  23
ATOM     23  C   ALA A   8       3.265   0.125  27.310  0.00  0.00    +0.245 C 
ATOM     24  O   ALA A   8       2.857   0.862  26.413  0.00  0.00    -0.299 OA
ENDBRANCH  21  23
ENDBRANCH  19  21
ENDBRANCH  16  17
BRANCH  16  25
ATOM     25  CB  GLN A   7       3.238  -5.422  28.930  0.00  0.00    +0.041 C 
BRANCH  25  26
ATOM     26  CG  GLN A   7       3.909  -6.785  28.753  0.00  0.00    +0.098 C 
BRANCH  26  27
ATOM     27  CD  GLN A   7       5.388  -6.747  29.066  0.00  0.00    +0.211 C 
ATOM     28  NE2 GLN A   7       5.854  -5.601  29.632  0.00  0.00    -0.329 N 
ATOM     29 HE21 GLN A   7       5.264  -4.834  29.918  0.00  0.00    +0.145 HD
ATOM     30 HE22 GLN A   7       6.833  -5.578  29.888  0.00  0.00    +0.145 HD
ATOM     31  OE1 GLN A   7       6.135  -7.697  28.863  0.00  0.00    -0.276 OA
ENDBRANCH  26  27
ENDBRANCH  25  26
ENDBRANCH  16  25
ENDBRANCH  13  16
ENDBRANCH  11  12
BRANCH  11  32
ATOM     32  CB  SER A   6       3.881  -7.513  24.714  0.00  0.00    +0.187 C 
BRANCH  32  33
ATOM     33  OG  SER A   6       2.925  -8.421  25.263  0.00  0.00    -0.393 OA
ATOM     34  H   SER A   6       2.345  -8.694  24.529  0.00  0.00    +0.209 HD
ENDBRANCH  32  33
ENDBRANCH  11  32
ENDBRANCH   9  11
ENDBRANCH   6   7
BRANCH   6  35
ATOM     35  CB  SER A   5       6.537  -5.885  21.228  0.00  0.00    +0.187 C 
BRANCH  35  36
ATOM     36  OG  SER A   5       5.958  -5.684  19.938  0.00  0.00    -0.393 OA
ATOM     37  H   SER A   5       4.998  -5.600  20.070  0.00  0.00    +0.209 HD
ENDBRANCH  35  36
ENDBRANCH   6  35
ENDBRANCH   3   6
ENDBRANCH   1   2
BRANCH   1  40
ATOM     38  C   LEU A   3       9.141   0.111  24.516  0.00  0.00    +0.234 C 
ATOM     39  O   LEU A   3      10.305   0.108  24.108  0.00  0.00    -0.274 OA
ATOM     40  N   GLN A   4       8.285  -0.939  24.299  0.00  0.00    -0.302 N 
ATOM     41  H   GLN A   4       7.347  -0.935  24.698  0.00  0.00    +0.150 HD
BRANCH  38  42
ATOM     42  CA  LEU A   3       8.551   1.284  25.335  0.00  0.00    +0.159 C 
BRANCH  42  44
ATOM     43  C   LYS A   2       8.479   3.221  23.769  0.00  0.00    +0.234 C 
ATOM     44  N   LEU A   3       7.869   2.150  24.376  0.00  0.00    -0.302 N 
ATOM     45  H   LEU A   3       6.986   1.804  24.015  0.00  0.00    +0.150 HD
ATOM     46  O   LYS A   2       9.591   3.638  24.087  0.00  0.00    -0.274 OA
BRANCH  43  47
ATOM     47  CA  LYS A   2       7.683   3.828  22.599  0.00  0.00    +0.159 C 
BRANCH  47  50
ATOM     48  C   PRO A   1       7.763   1.715  21.323  0.00  0.00    +0.231 C 
ATOM     49  O   PRO A   1       8.996   1.694  21.342  0.00  0.00    -0.274 OA
ATOM     50  N   LYS A   2       7.037   2.731  21.894  0.00  0.00    -0.303 N 
ATOM     51  H   LYS A   2       6.025   2.756  21.804  0.00  0.00    +0.149 HD
BRANCH  48  57
ATOM     52  N   PRO A   1       5.602   1.136  20.263  0.00  0.00    -0.306 NA
ATOM     53  H   PRO A   1       5.660   2.157  20.353  0.00  0.00    +0.123 HD
ATOM     54  CD  PRO A   1       5.450   0.812  18.840  0.00  0.00    +0.081 C 
ATOM     55  CG  PRO A   1       6.864   0.716  18.307  0.00  0.00    +0.017 C 
ATOM     56  CB  PRO A   1       7.600   0.038  19.446  0.00  0.00    +0.029 C 
ATOM     57  CA  PRO A   1       6.917   0.593  20.693  0.00  0.00    +0.140 C 
ENDBRANCH  48  57
ENDBRANCH  47  50
BRANCH  47  58
ATOM     58  CB  LYS A   2       6.650   4.845  23.122  0.00  0.00    +0.032 C 
BRANCH  58  59
ATOM     59  CG  LYS A   2       5.254   4.238  23.276  0.00  0.00    +0.007 C 
BRANCH  59  60
ATOM     60  CD  LYS A   2       4.138   5.203  22.872  0.00  0.00    +0.051 C 
BRANCH  60  61
ATOM     61  CE  LYS A   2       3.126   4.469  22.000  0.00  0.00    +0.127 C 
BRANCH  61  62
ATOM     62  NZ  LYS A   2       3.702   3.197  21.516  0.00  0.00    +0.219 N 
ATOM     63  HZ1 LYS A   2       4.602   3.331  21.039  0.00  0.00    +0.199 HD
ATOM     64  HZ2 LYS A   2       3.042   2.764  20.852  0.00  0.00    +0.199 HD
ATOM     65  HZ3 LYS A   2       3.833   2.525  22.280  0.00  0.00    +0.199 HD
ENDBRANCH  61  62
ENDBRANCH  60  61
ENDBRANCH  59  60
ENDBRANCH  58  59
ENDBRANCH  47  58
ENDBRANCH  43  47
ENDBRANCH  42  44
BRANCH  42  66
ATOM     66  CB  LEU A   3       7.588   0.776  26.415  0.00  0.00    +0.034 C 
BRANCH  66  67
ATOM     67  CG  LEU A   3       7.140   1.851  27.427  0.00  0.00    -0.015 C 
ATOM     68  CD2 LEU A   3       6.825   1.257  28.801  0.00  0.00    +0.007 C 
ATOM     69  CD1 LEU A   3       5.906   2.584  26.894  0.00  0.00    +0.007 C 
ENDBRANCH  66  67
ENDBRANCH  42  66
ENDBRANCH  38  42
ENDBRANCH   1  40
BRANCH   1  70
ATOM     70  CB  GLN A   4       9.315  -3.162  24.551  0.00  0.00    +0.041 C 
BRANCH  70  71
ATOM     71  CG  GLN A   4       8.570  -3.278  25.878  0.00  0.00    +0.098 C 
BRANCH  71  72
ATOM     72  CD  GLN A   4       8.779  -4.663  26.462  0.00  0.00    +0.211 C 
ATOM     73  OE1 GLN A   4       8.067  -5.150  27.340  0.00  0.00    -0.276 OA
ATOM     74  NE2 GLN A   4       9.778  -5.383  25.877  0.00  0.00    -0.329 N 
ATOM     75 HE21 GLN A   4       9.999  -6.302  26.238  0.00  0.00    +0.145 HD
ATOM     76 HE22 GLN A   4      10.437  -4.978  25.222  0.00  0.00    +0.145 HD
ENDBRANCH  71  72
ENDBRANCH  70  71
ENDBRANCH   1  70
TORSDOF 32
ENDMDL
MODEL 13
REMARK VINA RESULT:      -5.4      2.151      8.146
REMARK  Name = PKLQSSQA-mmff94.pdb
REMARK  35 active torsions:
REMARK  status: ('A' for Active; 'I' for Inactive)
REMARK    1  A    between atoms: _2  and  _3
REMARK    2  A    between atoms: _15  and  _16
REMARK    3  A    between atoms: _16  and  _17
REMARK    4  A    between atoms: _16  and  _19
REMARK    5  A    between atoms: _19  and  _20
REMARK    6  A    between atoms: _20  and  _21
REMARK    7  A    between atoms: _21  and  _22
REMARK    8  A    between atoms: _22  and  _23
REMARK    9  A    between atoms: _37  and  _38
REMARK   10  A    between atoms: _38  and  _39
REMARK   11  A    between atoms: _38  and  _41
REMARK   12  A    between atoms: _41  and  _42
REMARK   13  A    between atoms: _42  and  _43
REMARK   14  A    between atoms: _42  and  _44
REMARK   15  A    between atoms: _56  and  _57
REMARK   16  A    between atoms: _57  and  _58
REMARK   17  A    between atoms: _57  and  _60
REMARK   18  A    between atoms: _60  and  _61
REMARK   19  A    between atoms: _61  and  _62
REMARK   20  A    between atoms: _73  and  _74
REMARK   21  A    between atoms: _74  and  _75
REMARK   22  A    between atoms: _74  and  _77
REMARK   23  A    between atoms: _77  and  _78
REMARK   24  A    between atoms: _84  and  _85
REMARK   25  A    between atoms: _85  and  _86
REMARK   26  A    between atoms: _85  and  _88
REMARK   27  A    between atoms: _88  and  _89
REMARK   28  A    between atoms: _95  and  _96
REMARK   29  A    between atoms: _96  and  _97
REMARK   30  A    between atoms: _96  and  _99
REMARK   31  A    between atoms: _99  and  _100
REMARK   32  A    between atoms: _100  and  _101
REMARK   33  A    between atoms: _112  and  _113
REMARK   34  A    between atoms: _113  and  _114
REMARK   35  A    between atoms: _113  and  _116
REMARK                            x       y       z     vdW  Elec       q    Type
REMARK                         _______ _______ _______ _____ _____    ______ ____
ROOT
ATOM      1  CA  GLN A   4       5.580   3.507  23.958  0.00  0.00    +0.159 C 
ENDROOT
BRANCH   1   2
ATOM      2  C   GLN A   4       5.748   2.739  25.286  0.00  0.00    +0.234 C 
ATOM      3  N   SER A   5       5.771   1.374  25.195  0.00  0.00    -0.301 N 
ATOM      4  H   SER A   5       5.598   0.886  24.320  0.00  0.00    +0.150 HD
ATOM      5  O   GLN A   4       5.885   3.329  26.358  0.00  0.00    -0.274 OA
BRANCH   3   6
ATOM      6  CA  SER A   5       5.995   0.515  26.368  0.00  0.00    +0.184 C 
BRANCH   6   7
ATOM      7  C   SER A   5       4.670  -0.204  26.679  0.00  0.00    +0.236 C 
ATOM      8  O   SER A   5       3.606   0.411  26.767  0.00  0.00    -0.274 OA
ATOM      9  N   SER A   6       4.745  -1.571  26.795  0.00  0.00    -0.300 N 
ATOM     10  H   SER A   6       5.647  -2.046  26.804  0.00  0.00    +0.150 HD
BRANCH   9  11
ATOM     11  CA  SER A   6       3.618  -2.386  27.268  0.00  0.00    +0.184 C 
BRANCH  11  12
ATOM     12  C   SER A   6       4.204  -3.712  27.788  0.00  0.00    +0.236 C 
ATOM     13  N   GLN A   7       4.421  -4.681  26.843  0.00  0.00    -0.302 N 
ATOM     14  H   GLN A   7       4.196  -4.522  25.863  0.00  0.00    +0.150 HD
ATOM     15  O   SER A   6       4.429  -3.885  28.987  0.00  0.00    -0.274 OA
BRANCH  13  16
ATOM     16  CA  GLN A   7       5.003  -5.989  27.159  0.00  0.00    +0.159 C 
BRANCH  16  17
ATOM     17  C   GLN A   7       6.517  -5.740  27.325  0.00  0.00    +0.234 C 
ATOM     18  O   GLN A   7       7.112  -6.046  28.358  0.00  0.00    -0.274 OA
ATOM     19  N   ALA A   8       7.138  -5.134  26.265  0.00  0.00    -0.305 N 
ATOM     20  H   ALA A   8       6.622  -4.895  25.421  0.00  0.00    +0.149 HD
BRANCH  19  21
ATOM     21  CA  ALA A   8       8.550  -4.773  26.282  0.00  0.00    +0.133 C 
ATOM     22  CB  ALA A   8       9.194  -4.930  24.914  0.00  0.00    +0.035 C 
BRANCH  21  23
ATOM     23  C   ALA A   8       8.660  -3.323  26.733  0.00  0.00    +0.245 C 
ATOM     24  O   ALA A   8       7.724  -2.526  26.675  0.00  0.00    -0.299 OA
ENDBRANCH  21  23
ENDBRANCH  19  21
ENDBRANCH  16  17
BRANCH  16  25
ATOM     25  CB  GLN A   7       4.713  -6.998  26.038  0.00  0.00    +0.041 C 
BRANCH  25  26
ATOM     26  CG  GLN A   7       3.226  -7.304  25.856  0.00  0.00    +0.098 C 
BRANCH  26  27
ATOM     27  CD  GLN A   7       2.692  -6.815  24.529  0.00  0.00    +0.211 C 
ATOM     28  NE2 GLN A   7       2.454  -7.769  23.588  0.00  0.00    -0.329 N 
ATOM     29 HE21 GLN A   7       2.537  -8.760  23.758  0.00  0.00    +0.145 HD
ATOM     30 HE22 GLN A   7       2.054  -7.462  22.710  0.00  0.00    +0.145 HD
ATOM     31  OE1 GLN A   7       2.445  -5.636  24.304  0.00  0.00    -0.276 OA
ENDBRANCH  26  27
ENDBRANCH  25  26
ENDBRANCH  16  25
ENDBRANCH  13  16
ENDBRANCH  11  12
BRANCH  11  32
ATOM     32  CB  SER A   6       2.575  -2.633  26.172  0.00  0.00    +0.187 C 
BRANCH  32  33
ATOM     33  OG  SER A   6       3.186  -3.014  24.938  0.00  0.00    -0.393 OA
ATOM     34  H   SER A   6       3.289  -3.983  24.964  0.00  0.00    +0.209 HD
ENDBRANCH  32  33
ENDBRANCH  11  32
ENDBRANCH   9  11
ENDBRANCH   6   7
BRANCH   6  35
ATOM     35  CB  SER A   5       6.501   1.302  27.585  0.00  0.00    +0.187 C 
BRANCH  35  36
ATOM     36  OG  SER A   5       5.495   1.405  28.593  0.00  0.00    -0.393 OA
ATOM     37  H   SER A   5       4.890   0.655  28.467  0.00  0.00    +0.209 HD
ENDBRANCH  35  36
ENDBRANCH   6  35
ENDBRANCH   3   6
ENDBRANCH   1   2
BRANCH   1  40
ATOM     38  C   LEU A   3       7.306   2.659  22.375  0.00  0.00    +0.234 C 
ATOM     39  O   LEU A   3       8.142   3.482  22.756  0.00  0.00    -0.274 OA
ATOM     40  N   GLN A   4       6.043   2.597  22.909  0.00  0.00    -0.302 N 
ATOM     41  H   GLN A   4       5.354   1.946  22.536  0.00  0.00    +0.150 HD
BRANCH  38  42
ATOM     42  CA  LEU A   3       7.594   1.644  21.244  0.00  0.00    +0.159 C 
BRANCH  42  44
ATOM     43  C   LYS A   2       7.375  -0.420  22.621  0.00  0.00    +0.234 C 
ATOM     44  N   LEU A   3       8.141   0.455  21.890  0.00  0.00    -0.302 N 
ATOM     45  H   LEU A   3       9.076   0.184  21.603  0.00  0.00    +0.150 HD
ATOM     46  O   LYS A   2       6.203  -0.204  22.925  0.00  0.00    -0.274 OA
BRANCH  43  47
ATOM     47  CA  LYS A   2       8.082  -1.740  22.981  0.00  0.00    +0.159 C 
BRANCH  47  50
ATOM     48  C   PRO A   1       6.277  -3.410  23.202  0.00  0.00    +0.231 C 
ATOM     49  O   PRO A   1       6.041  -3.073  24.365  0.00  0.00    -0.274 OA
ATOM     50  N   LYS A   2       7.271  -2.828  22.455  0.00  0.00    -0.303 N 
ATOM     51  H   LYS A   2       7.486  -3.173  21.524  0.00  0.00    +0.149 HD
BRANCH  48  57
ATOM     52  N   PRO A   1       5.772  -4.443  21.009  0.00  0.00    -0.306 NA
ATOM     53  H   PRO A   1       6.573  -3.809  20.897  0.00  0.00    +0.123 HD
ATOM     54  CD  PRO A   1       6.201  -5.791  20.623  0.00  0.00    +0.081 C 
ATOM     55  CG  PRO A   1       6.776  -6.397  21.886  0.00  0.00    +0.017 C 
ATOM     56  CB  PRO A   1       5.835  -5.881  22.956  0.00  0.00    +0.029 C 
ATOM     57  CA  PRO A   1       5.461  -4.487  22.462  0.00  0.00    +0.140 C 
ENDBRANCH  48  57
ENDBRANCH  47  50
BRANCH  47  58
ATOM     58  CB  LYS A   2       9.505  -1.765  22.392  0.00  0.00    +0.032 C 
BRANCH  58  59
ATOM     59  CG  LYS A   2      10.586  -1.558  23.456  0.00  0.00    +0.007 C 
BRANCH  59  60
ATOM     60  CD  LYS A   2      10.081  -0.782  24.674  0.00  0.00    +0.051 C 
BRANCH  60  61
ATOM     61  CE  LYS A   2      10.595   0.652  24.609  0.00  0.00    +0.127 C 
BRANCH  61  62
ATOM     62  NZ  LYS A   2       9.502   1.596  24.923  0.00  0.00    +0.219 N 
ATOM     63  HZ1 LYS A   2       8.755   1.160  25.477  0.00  0.00    +0.199 HD
ATOM     64  HZ2 LYS A   2       9.095   1.939  24.039  0.00  0.00    +0.199 HD
ATOM     65  HZ3 LYS A   2       9.846   2.421  25.427  0.00  0.00    +0.199 HD
ENDBRANCH  61  62
ENDBRANCH  60  61
ENDBRANCH  59  60
ENDBRANCH  58  59
ENDBRANCH  47  58
ENDBRANCH  43  47
ENDBRANCH  42  44
BRANCH  42  66
ATOM     66  CB  LEU A   3       6.319   1.318  20.455  0.00  0.00    +0.034 C 
BRANCH  66  67
ATOM     67  CG  LEU A   3       6.555   0.487  19.177  0.00  0.00    -0.015 C 
ATOM     68  CD2 LEU A   3       5.978   1.163  17.932  0.00  0.00    +0.007 C 
ATOM     69  CD1 LEU A   3       5.930  -0.902  19.337  0.00  0.00    +0.007 C 
ENDBRANCH  66  67
ENDBRANCH  42  66
ENDBRANCH  38  42
ENDBRANCH   1  40
BRANCH   1  70
ATOM     70  CB  GLN A   4       4.114   3.896  23.718  0.00  0.00    +0.041 C 
BRANCH  70  71
ATOM     71  CG  GLN A   4       3.858   4.471  22.327  0.00  0.00    +0.098 C 
BRANCH  71  72
ATOM     72  CD  GLN A   4       2.810   3.636  21.615  0.00  0.00    +0.211 C 
ATOM     73  OE1 GLN A   4       1.604   3.699  21.857  0.00  0.00    -0.276 OA
ATOM     74  NE2 GLN A   4       3.291   2.854  20.608  0.00  0.00    -0.329 N 
ATOM     75 HE21 GLN A   4       2.656   2.243  20.111  0.00  0.00    +0.145 HD
ATOM     76 HE22 GLN A   4       4.282   2.711  20.448  0.00  0.00    +0.145 HD
ENDBRANCH  71  72
ENDBRANCH  70  71
ENDBRANCH   1  70
TORSDOF 32
ENDMDL
MODEL 14
REMARK VINA RESULT:      -5.3      2.181      7.937
REMARK  Name = PKLQSSQA-mmff94.pdb
REMARK  35 active torsions:
REMARK  status: ('A' for Active; 'I' for Inactive)
REMARK    1  A    between atoms: _2  and  _3
REMARK    2  A    between atoms: _15  and  _16
REMARK    3  A    between atoms: _16  and  _17
REMARK    4  A    between atoms: _16  and  _19
REMARK    5  A    between atoms: _19  and  _20
REMARK    6  A    between atoms: _20  and  _21
REMARK    7  A    between atoms: _21  and  _22
REMARK    8  A    between atoms: _22  and  _23
REMARK    9  A    between atoms: _37  and  _38
REMARK   10  A    between atoms: _38  and  _39
REMARK   11  A    between atoms: _38  and  _41
REMARK   12  A    between atoms: _41  and  _42
REMARK   13  A    between atoms: _42  and  _43
REMARK   14  A    between atoms: _42  and  _44
REMARK   15  A    between atoms: _56  and  _57
REMARK   16  A    between atoms: _57  and  _58
REMARK   17  A    between atoms: _57  and  _60
REMARK   18  A    between atoms: _60  and  _61
REMARK   19  A    between atoms: _61  and  _62
REMARK   20  A    between atoms: _73  and  _74
REMARK   21  A    between atoms: _74  and  _75
REMARK   22  A    between atoms: _74  and  _77
REMARK   23  A    between atoms: _77  and  _78
REMARK   24  A    between atoms: _84  and  _85
REMARK   25  A    between atoms: _85  and  _86
REMARK   26  A    between atoms: _85  and  _88
REMARK   27  A    between atoms: _88  and  _89
REMARK   28  A    between atoms: _95  and  _96
REMARK   29  A    between atoms: _96  and  _97
REMARK   30  A    between atoms: _96  and  _99
REMARK   31  A    between atoms: _99  and  _100
REMARK   32  A    between atoms: _100  and  _101
REMARK   33  A    between atoms: _112  and  _113
REMARK   34  A    between atoms: _113  and  _114
REMARK   35  A    between atoms: _113  and  _116
REMARK                            x       y       z     vdW  Elec       q    Type
REMARK                         _______ _______ _______ _____ _____    ______ ____
ROOT
ATOM      1  CA  GLN A   4       6.731  -0.092  21.220  0.00  0.00    +0.159 C 
ENDROOT
BRANCH   1   2
ATOM      2  C   GLN A   4       6.791  -1.554  21.710  0.00  0.00    +0.234 C 
ATOM      3  N   SER A   5       5.780  -2.374  21.288  0.00  0.00    -0.301 N 
ATOM      4  H   SER A   5       4.986  -2.026  20.757  0.00  0.00    +0.150 HD
ATOM      5  O   GLN A   4       7.716  -1.960  22.413  0.00  0.00    -0.274 OA
BRANCH   3   6
ATOM      6  CA  SER A   5       5.745  -3.807  21.617  0.00  0.00    +0.184 C 
BRANCH   6   7
ATOM      7  C   SER A   5       4.882  -3.974  22.881  0.00  0.00    +0.236 C 
ATOM      8  O   SER A   5       4.836  -3.104  23.752  0.00  0.00    -0.274 OA
ATOM      9  N   SER A   6       4.131  -5.122  22.944  0.00  0.00    -0.300 N 
ATOM     10  H   SER A   6       4.251  -5.864  22.255  0.00  0.00    +0.150 HD
BRANCH   9  11
ATOM     11  CA  SER A   6       3.400  -5.522  24.154  0.00  0.00    +0.184 C 
BRANCH  11  12
ATOM     12  C   SER A   6       4.419  -6.181  25.102  0.00  0.00    +0.236 C 
ATOM     13  N   GLN A   7       5.025  -5.343  26.003  0.00  0.00    -0.302 N 
ATOM     14  H   GLN A   7       4.810  -4.349  26.027  0.00  0.00    +0.150 HD
ATOM     15  O   SER A   6       4.685  -7.381  25.021  0.00  0.00    -0.274 OA
BRANCH  13  16
ATOM     16  CA  GLN A   7       5.995  -5.809  26.999  0.00  0.00    +0.159 C 
BRANCH  16  17
ATOM     17  C   GLN A   7       5.362  -5.499  28.372  0.00  0.00    +0.234 C 
ATOM     18  O   GLN A   7       6.041  -5.113  29.323  0.00  0.00    -0.274 OA
ATOM     19  N   ALA A   8       4.012  -5.711  28.464  0.00  0.00    -0.305 N 
ATOM     20  H   ALA A   8       3.474  -6.027  27.659  0.00  0.00    +0.149 HD
BRANCH  19  21
ATOM     21  CA  ALA A   8       3.269  -5.526  29.704  0.00  0.00    +0.133 C 
ATOM     22  CB  ALA A   8       1.844  -5.062  29.450  0.00  0.00    +0.035 C 
BRANCH  21  23
ATOM     23  C   ALA A   8       3.248  -6.857  30.442  0.00  0.00    +0.245 C 
ATOM     24  O   ALA A   8       3.070  -7.937  29.881  0.00  0.00    -0.299 OA
ENDBRANCH  21  23
ENDBRANCH  19  21
ENDBRANCH  16  17
BRANCH  16  25
ATOM     25  CB  GLN A   7       7.343  -5.094  26.820  0.00  0.00    +0.041 C 
BRANCH  25  26
ATOM     26  CG  GLN A   7       7.663  -4.739  25.367  0.00  0.00    +0.098 C 
BRANCH  26  27
ATOM     27  CD  GLN A   7       9.148  -4.745  25.083  0.00  0.00    +0.211 C 
ATOM     28  NE2 GLN A   7       9.845  -5.816  25.551  0.00  0.00    -0.329 N 
ATOM     29 HE21 GLN A   7       9.417  -6.617  25.991  0.00  0.00    +0.145 HD
ATOM     30 HE22 GLN A   7      10.832  -5.857  25.329  0.00  0.00    +0.145 HD
ATOM     31  OE1 GLN A   7       9.706  -3.865  24.438  0.00  0.00    -0.276 OA
ENDBRANCH  26  27
ENDBRANCH  25  26
ENDBRANCH  16  25
ENDBRANCH  13  16
ENDBRANCH  11  12
BRANCH  11  32
ATOM     32  CB  SER A   6       2.235  -6.470  23.846  0.00  0.00    +0.187 C 
BRANCH  32  33
ATOM     33  OG  SER A   6       2.584  -7.426  22.843  0.00  0.00    -0.393 OA
ATOM     34  H   SER A   6       2.898  -8.221  23.311  0.00  0.00    +0.209 HD
ENDBRANCH  32  33
ENDBRANCH  11  32
ENDBRANCH   9  11
ENDBRANCH   6   7
BRANCH   6  35
ATOM     35  CB  SER A   5       7.148  -4.398  21.818  0.00  0.00    +0.187 C 
BRANCH  35  36
ATOM     36  OG  SER A   5       7.091  -5.806  22.049  0.00  0.00    -0.393 OA
ATOM     37  H   SER A   5       7.177  -6.239  21.183  0.00  0.00    +0.209 HD
ENDBRANCH  35  36
ENDBRANCH   6  35
ENDBRANCH   3   6
ENDBRANCH   1   2
BRANCH   1  40
ATOM     38  C   LEU A   3       6.391   2.054  22.436  0.00  0.00    +0.234 C 
ATOM     39  O   LEU A   3       5.975   2.627  21.425  0.00  0.00    -0.274 OA
ATOM     40  N   GLN A   4       6.772   0.736  22.426  0.00  0.00    -0.302 N 
ATOM     41  H   GLN A   4       7.168   0.305  23.260  0.00  0.00    +0.150 HD
BRANCH  38  42
ATOM     42  CA  LEU A   3       6.550   2.777  23.794  0.00  0.00    +0.159 C 
BRANCH  42  44
ATOM     43  C   LYS A   2       6.756   1.663  26.013  0.00  0.00    +0.234 C 
ATOM     44  N   LEU A   3       7.151   1.806  24.705  0.00  0.00    -0.302 N 
ATOM     45  H   LEU A   3       7.731   1.093  24.276  0.00  0.00    +0.150 HD
ATOM     46  O   LYS A   2       5.979   2.432  26.575  0.00  0.00    -0.274 OA
BRANCH  43  47
ATOM     47  CA  LYS A   2       7.316   0.412  26.715  0.00  0.00    +0.159 C 
BRANCH  47  50
ATOM     48  C   PRO A   1       5.175  -0.754  26.319  0.00  0.00    +0.231 C 
ATOM     49  O   PRO A   1       5.156  -0.418  25.133  0.00  0.00    -0.274 OA
ATOM     50  N   LYS A   2       6.182  -0.376  27.173  0.00  0.00    -0.303 N 
ATOM     51  H   LYS A   2       6.135  -0.611  28.161  0.00  0.00    +0.149 HD
BRANCH  48  57
ATOM     52  N   PRO A   1       4.631  -2.286  28.187  0.00  0.00    -0.306 NA
ATOM     53  H   PRO A   1       5.529  -1.830  28.387  0.00  0.00    +0.123 HD
ATOM     54  CD  PRO A   1       3.701  -1.954  29.272  0.00  0.00    +0.081 C 
ATOM     55  CG  PRO A   1       3.060  -0.648  28.852  0.00  0.00    +0.017 C 
ATOM     56  CB  PRO A   1       2.879  -0.835  27.360  0.00  0.00    +0.029 C 
ATOM     57  CA  PRO A   1       4.098  -1.656  26.951  0.00  0.00    +0.140 C 
ENDBRANCH  48  57
ENDBRANCH  47  50
BRANCH  47  58
ATOM     58  CB  LYS A   2       8.205  -0.394  25.749  0.00  0.00    +0.032 C 
BRANCH  58  59
ATOM     59  CG  LYS A   2       9.690  -0.309  26.107  0.00  0.00    +0.007 C 
BRANCH  59  60
ATOM     60  CD  LYS A   2      10.532   0.344  25.010  0.00  0.00    +0.051 C 
BRANCH  60  61
ATOM     61  CE  LYS A   2       9.889   0.077  23.653  0.00  0.00    +0.127 C 
BRANCH  61  62
ATOM     62  NZ  LYS A   2      10.458  -1.149  23.056  0.00  0.00    +0.219 N 
ATOM     63  HZ1 LYS A   2      10.042  -1.370  22.143  0.00  0.00    +0.199 HD
ATOM     64  HZ2 LYS A   2      10.285  -1.941  23.694  0.00  0.00    +0.199 HD
ATOM     65  HZ3 LYS A   2      11.476  -1.080  22.944  0.00  0.00    +0.199 HD
ENDBRANCH  61  62
ENDBRANCH  60  61
ENDBRANCH  59  60
ENDBRANCH  58  59
ENDBRANCH  47  58
ENDBRANCH  43  47
ENDBRANCH  42  44
BRANCH  42  66
ATOM     66  CB  LEU A   3       7.423   4.031  23.656  0.00  0.00    +0.034 C 
BRANCH  66  67
ATOM     67  CG  LEU A   3       8.656   4.056  24.584  0.00  0.00    -0.015 C 
ATOM     68  CD2 LEU A   3       8.610   5.220  25.575  0.00  0.00    +0.007 C 
ATOM     69  CD1 LEU A   3       9.934   4.150  23.746  0.00  0.00    +0.007 C 
ENDBRANCH  66  67
ENDBRANCH  42  66
ENDBRANCH  38  42
ENDBRANCH   1  40
BRANCH   1  70
ATOM     70  CB  GLN A   4       7.917   0.240  20.303  0.00  0.00    +0.041 C 
BRANCH  70  71
ATOM     71  CG  GLN A   4       7.702  -0.185  18.852  0.00  0.00    +0.098 C 
BRANCH  71  72
ATOM     72  CD  GLN A   4       6.293   0.174  18.419  0.00  0.00    +0.211 C 
ATOM     73  OE1 GLN A   4       5.855   1.324  18.397  0.00  0.00    -0.276 OA
ATOM     74  NE2 GLN A   4       5.552  -0.876  17.964  0.00  0.00    -0.329 N 
ATOM     75 HE21 GLN A   4       4.590  -0.719  17.691  0.00  0.00    +0.145 HD
ATOM     76 HE22 GLN A   4       5.849  -1.840  18.057  0.00  0.00    +0.145 HD
ENDBRANCH  71  72
ENDBRANCH  70  71
ENDBRANCH   1  70
TORSDOF 32
ENDMDL
MODEL 15
REMARK VINA RESULT:      -5.3      2.086      7.369
REMARK  Name = PKLQSSQA-mmff94.pdb
REMARK  35 active torsions:
REMARK  status: ('A' for Active; 'I' for Inactive)
REMARK    1  A    between atoms: _2  and  _3
REMARK    2  A    between atoms: _15  and  _16
REMARK    3  A    between atoms: _16  and  _17
REMARK    4  A    between atoms: _16  and  _19
REMARK    5  A    between atoms: _19  and  _20
REMARK    6  A    between atoms: _20  and  _21
REMARK    7  A    between atoms: _21  and  _22
REMARK    8  A    between atoms: _22  and  _23
REMARK    9  A    between atoms: _37  and  _38
REMARK   10  A    between atoms: _38  and  _39
REMARK   11  A    between atoms: _38  and  _41
REMARK   12  A    between atoms: _41  and  _42
REMARK   13  A    between atoms: _42  and  _43
REMARK   14  A    between atoms: _42  and  _44
REMARK   15  A    between atoms: _56  and  _57
REMARK   16  A    between atoms: _57  and  _58
REMARK   17  A    between atoms: _57  and  _60
REMARK   18  A    between atoms: _60  and  _61
REMARK   19  A    between atoms: _61  and  _62
REMARK   20  A    between atoms: _73  and  _74
REMARK   21  A    between atoms: _74  and  _75
REMARK   22  A    between atoms: _74  and  _77
REMARK   23  A    between atoms: _77  and  _78
REMARK   24  A    between atoms: _84  and  _85
REMARK   25  A    between atoms: _85  and  _86
REMARK   26  A    between atoms: _85  and  _88
REMARK   27  A    between atoms: _88  and  _89
REMARK   28  A    between atoms: _95  and  _96
REMARK   29  A    between atoms: _96  and  _97
REMARK   30  A    between atoms: _96  and  _99
REMARK   31  A    between atoms: _99  and  _100
REMARK   32  A    between atoms: _100  and  _101
REMARK   33  A    between atoms: _112  and  _113
REMARK   34  A    between atoms: _113  and  _114
REMARK   35  A    between atoms: _113  and  _116
REMARK                            x       y       z     vdW  Elec       q    Type
REMARK                         _______ _______ _______ _____ _____    ______ ____
ROOT
ATOM      1  CA  GLN A   4       2.938  -4.027  25.400  0.00  0.00    +0.159 C 
ENDROOT
BRANCH   1   2
ATOM      2  C   GLN A   4       2.561  -2.642  25.965  0.00  0.00    +0.234 C 
ATOM      3  N   SER A   5       3.536  -1.996  26.676  0.00  0.00    -0.301 N 
ATOM      4  H   SER A   5       4.426  -2.434  26.897  0.00  0.00    +0.150 HD
ATOM      5  O   GLN A   4       1.456  -2.140  25.759  0.00  0.00    -0.274 OA
BRANCH   3   6
ATOM      6  CA  SER A   5       3.344  -0.640  27.213  0.00  0.00    +0.184 C 
BRANCH   6   7
ATOM      7  C   SER A   5       4.491   0.238  26.680  0.00  0.00    +0.236 C 
ATOM      8  O   SER A   5       4.797   0.248  25.487  0.00  0.00    -0.274 OA
ATOM      9  N   SER A   6       5.107   1.043  27.607  0.00  0.00    -0.300 N 
ATOM     10  H   SER A   6       4.896   0.953  28.600  0.00  0.00    +0.150 HD
BRANCH   9  11
ATOM     11  CA  SER A   6       6.331   1.799  27.307  0.00  0.00    +0.184 C 
BRANCH  11  12
ATOM     12  C   SER A   6       7.481   0.780  27.207  0.00  0.00    +0.236 C 
ATOM     13  N   GLN A   7       7.995   0.582  25.952  0.00  0.00    -0.302 N 
ATOM     14  H   GLN A   7       7.625   1.079  25.145  0.00  0.00    +0.150 HD
ATOM     15  O   SER A   6       7.880   0.167  28.198  0.00  0.00    -0.274 OA
BRANCH  13  16
ATOM     16  CA  GLN A   7       9.113  -0.328  25.682  0.00  0.00    +0.159 C 
BRANCH  16  17
ATOM     17  C   GLN A   7       9.874   0.291  24.490  0.00  0.00    +0.234 C 
ATOM     18  O   GLN A   7      10.417  -0.410  23.637  0.00  0.00    -0.274 OA
ATOM     19  N   ALA A   8       9.927   1.659  24.467  0.00  0.00    -0.305 N 
ATOM     20  H   ALA A   8       9.465   2.215  25.184  0.00  0.00    +0.149 HD
BRANCH  19  21
ATOM     21  CA  ALA A   8      10.656   2.402  23.446  0.00  0.00    +0.133 C 
ATOM     22  CB  ALA A   8      10.021   2.254  22.073  0.00  0.00    +0.035 C 
BRANCH  21  23
ATOM     23  C   ALA A   8      10.665   3.870  23.849  0.00  0.00    +0.245 C 
ATOM     24  O   ALA A   8      11.525   4.667  23.474  0.00  0.00    -0.299 OA
ENDBRANCH  21  23
ENDBRANCH  19  21
ENDBRANCH  16  17
BRANCH  16  25
ATOM     25  CB  GLN A   7       8.599  -1.738  25.356  0.00  0.00    +0.041 C 
BRANCH  25  26
ATOM     26  CG  GLN A   7       8.714  -2.719  26.524  0.00  0.00    +0.098 C 
BRANCH  26  27
ATOM     27  CD  GLN A   7       7.397  -3.387  26.851  0.00  0.00    +0.211 C 
ATOM     28  NE2 GLN A   7       7.464  -4.688  27.244  0.00  0.00    -0.329 N 
ATOM     29 HE21 GLN A   7       8.328  -5.184  27.401  0.00  0.00    +0.145 HD
ATOM     30 HE22 GLN A   7       6.596  -5.135  27.510  0.00  0.00    +0.145 HD
ATOM     31  OE1 GLN A   7       6.323  -2.799  26.806  0.00  0.00    -0.276 OA
ENDBRANCH  26  27
ENDBRANCH  25  26
ENDBRANCH  16  25
ENDBRANCH  13  16
ENDBRANCH  11  12
BRANCH  11  32
ATOM     32  CB  SER A   6       6.629   2.870  28.364  0.00  0.00    +0.187 C 
BRANCH  32  33
ATOM     33  OG  SER A   6       7.736   2.505  29.188  0.00  0.00    -0.393 OA
ATOM     34  H   SER A   6       7.653   3.018  30.012  0.00  0.00    +0.209 HD
ENDBRANCH  32  33
ENDBRANCH  11  32
ENDBRANCH   9  11
ENDBRANCH   6   7
BRANCH   6  35
ATOM     35  CB  SER A   5       3.291  -0.617  28.747  0.00  0.00    +0.187 C 
BRANCH  35  36
ATOM     36  OG  SER A   5       2.149  -1.320  29.239  0.00  0.00    -0.393 OA
ATOM     37  H   SER A   5       2.480  -2.021  29.825  0.00  0.00    +0.209 HD
ENDBRANCH  35  36
ENDBRANCH   6  35
ENDBRANCH   3   6
ENDBRANCH   1   2
BRANCH   1  40
ATOM     38  C   LEU A   3       4.323  -4.215  23.338  0.00  0.00    +0.234 C 
ATOM     39  O   LEU A   3       3.408  -4.746  22.703  0.00  0.00    -0.274 OA
ATOM     40  N   GLN A   4       4.177  -3.829  24.648  0.00  0.00    -0.302 N 
ATOM     41  H   GLN A   4       4.967  -3.447  25.166  0.00  0.00    +0.150 HD
BRANCH  38  42
ATOM     42  CA  LEU A   3       5.722  -3.964  22.728  0.00  0.00    +0.159 C 
BRANCH  42  44
ATOM     43  C   LYS A   2       6.932  -1.911  22.004  0.00  0.00    +0.234 C 
ATOM     44  N   LEU A   3       5.781  -2.540  22.410  0.00  0.00    -0.302 N 
ATOM     45  H   LEU A   3       4.887  -2.073  22.298  0.00  0.00    +0.150 HD
ATOM     46  O   LYS A   2       8.039  -2.446  22.019  0.00  0.00    -0.274 OA
BRANCH  43  47
ATOM     47  CA  LYS A   2       6.721  -0.487  21.458  0.00  0.00    +0.159 C 
BRANCH  47  50
ATOM     48  C   PRO A   1       6.273   1.734  22.441  0.00  0.00    +0.231 C 
ATOM     49  O   PRO A   1       6.246   2.273  21.333  0.00  0.00    -0.274 OA
ATOM     50  N   LYS A   2       6.520   0.393  22.601  0.00  0.00    -0.303 N 
ATOM     51  H   LYS A   2       6.604  -0.010  23.530  0.00  0.00    +0.149 HD
BRANCH  48  57
ATOM     52  N   PRO A   1       7.232   3.208  24.186  0.00  0.00    -0.306 NA
ATOM     53  H   PRO A   1       7.903   3.133  23.413  0.00  0.00    +0.123 HD
ATOM     54  CD  PRO A   1       6.877   4.622  24.346  0.00  0.00    +0.081 C 
ATOM     55  CG  PRO A   1       5.717   4.845  23.399  0.00  0.00    +0.017 C 
ATOM     56  CB  PRO A   1       4.925   3.561  23.540  0.00  0.00    +0.029 C 
ATOM     57  CA  PRO A   1       6.000   2.499  23.751  0.00  0.00    +0.140 C 
ENDBRANCH  48  57
ENDBRANCH  47  50
BRANCH  47  58
ATOM     58  CB  LYS A   2       7.934  -0.047  20.618  0.00  0.00    +0.032 C 
BRANCH  58  59
ATOM     59  CG  LYS A   2       7.604   0.080  19.129  0.00  0.00    +0.007 C 
BRANCH  59  60
ATOM     60  CD  LYS A   2       6.116  -0.110  18.831  0.00  0.00    +0.051 C 
BRANCH  60  61
ATOM     61  CE  LYS A   2       5.577   1.133  18.132  0.00  0.00    +0.127 C 
BRANCH  61  62
ATOM     62  NZ  LYS A   2       4.498   1.740  18.939  0.00  0.00    +0.219 N 
ATOM     63  HZ1 LYS A   2       4.811   1.992  19.885  0.00  0.00    +0.199 HD
ATOM     64  HZ2 LYS A   2       3.724   1.063  19.021  0.00  0.00    +0.199 HD
ATOM     65  HZ3 LYS A   2       4.110   2.576  18.488  0.00  0.00    +0.199 HD
ENDBRANCH  61  62
ENDBRANCH  60  61
ENDBRANCH  59  60
ENDBRANCH  58  59
ENDBRANCH  47  58
ENDBRANCH  43  47
ENDBRANCH  42  44
BRANCH  42  66
ATOM     66  CB  LEU A   3       6.833  -4.367  23.707  0.00  0.00    +0.034 C 
BRANCH  66  67
ATOM     67  CG  LEU A   3       7.908  -5.294  23.105  0.00  0.00    -0.015 C 
ATOM     68  CD2 LEU A   3       7.311  -6.324  22.144  0.00  0.00    +0.007 C 
ATOM     69  CD1 LEU A   3       8.657  -6.019  24.227  0.00  0.00    +0.007 C 
ENDBRANCH  66  67
ENDBRANCH  42  66
ENDBRANCH  38  42
ENDBRANCH   1  40
BRANCH   1  70
ATOM     70  CB  GLN A   4       3.153  -5.052  26.524  0.00  0.00    +0.041 C 
BRANCH  70  71
ATOM     71  CG  GLN A   4       4.415  -5.894  26.345  0.00  0.00    +0.098 C 
BRANCH  71  72
ATOM     72  CD  GLN A   4       4.570  -6.836  27.524  0.00  0.00    +0.211 C 
ATOM     73  OE1 GLN A   4       5.659  -7.190  27.978  0.00  0.00    -0.276 OA
ATOM     74  NE2 GLN A   4       3.400  -7.208  28.115  0.00  0.00    -0.329 N 
ATOM     75 HE21 GLN A   4       3.423  -7.865  28.885  0.00  0.00    +0.145 HD
ATOM     76 HE22 GLN A   4       2.492  -7.012  27.709  0.00  0.00    +0.145 HD
ENDBRANCH  71  72
ENDBRANCH  70  71
ENDBRANCH   1  70
TORSDOF 32
ENDMDL
MODEL 16
REMARK VINA RESULT:      -5.3      2.000      8.056
REMARK  Name = PKLQSSQA-mmff94.pdb
REMARK  35 active torsions:
REMARK  status: ('A' for Active; 'I' for Inactive)
REMARK    1  A    between atoms: _2  and  _3
REMARK    2  A    between atoms: _15  and  _16
REMARK    3  A    between atoms: _16  and  _17
REMARK    4  A    between atoms: _16  and  _19
REMARK    5  A    between atoms: _19  and  _20
REMARK    6  A    between atoms: _20  and  _21
REMARK    7  A    between atoms: _21  and  _22
REMARK    8  A    between atoms: _22  and  _23
REMARK    9  A    between atoms: _37  and  _38
REMARK   10  A    between atoms: _38  and  _39
REMARK   11  A    between atoms: _38  and  _41
REMARK   12  A    between atoms: _41  and  _42
REMARK   13  A    between atoms: _42  and  _43
REMARK   14  A    between atoms: _42  and  _44
REMARK   15  A    between atoms: _56  and  _57
REMARK   16  A    between atoms: _57  and  _58
REMARK   17  A    between atoms: _57  and  _60
REMARK   18  A    between atoms: _60  and  _61
REMARK   19  A    between atoms: _61  and  _62
REMARK   20  A    between atoms: _73  and  _74
REMARK   21  A    between atoms: _74  and  _75
REMARK   22  A    between atoms: _74  and  _77
REMARK   23  A    between atoms: _77  and  _78
REMARK   24  A    between atoms: _84  and  _85
REMARK   25  A    between atoms: _85  and  _86
REMARK   26  A    between atoms: _85  and  _88
REMARK   27  A    between atoms: _88  and  _89
REMARK   28  A    between atoms: _95  and  _96
REMARK   29  A    between atoms: _96  and  _97
REMARK   30  A    between atoms: _96  and  _99
REMARK   31  A    between atoms: _99  and  _100
REMARK   32  A    between atoms: _100  and  _101
REMARK   33  A    between atoms: _112  and  _113
REMARK   34  A    between atoms: _113  and  _114
REMARK   35  A    between atoms: _113  and  _116
REMARK                            x       y       z     vdW  Elec       q    Type
REMARK                         _______ _______ _______ _____ _____    ______ ____
ROOT
ATOM      1  CA  GLN A   4       7.328  -0.421  21.153  0.00  0.00    +0.159 C 
ENDROOT
BRANCH   1   2
ATOM      2  C   GLN A   4       7.822  -1.729  21.806  0.00  0.00    +0.234 C 
ATOM      3  N   SER A   5       6.855  -2.549  22.321  0.00  0.00    -0.301 N 
ATOM      4  H   SER A   5       5.876  -2.277  22.355  0.00  0.00    +0.150 HD
ATOM      5  O   GLN A   4       9.016  -2.027  21.830  0.00  0.00    -0.274 OA
BRANCH   3   6
ATOM      6  CA  SER A   5       7.171  -3.860  22.908  0.00  0.00    +0.184 C 
BRANCH   6   7
ATOM      7  C   SER A   5       5.856  -4.655  23.008  0.00  0.00    +0.236 C 
ATOM      8  O   SER A   5       5.216  -4.975  22.004  0.00  0.00    -0.274 OA
ATOM      9  N   SER A   6       5.477  -5.027  24.274  0.00  0.00    -0.300 N 
ATOM     10  H   SER A   6       5.974  -4.677  25.093  0.00  0.00    +0.150 HD
BRANCH   9  11
ATOM     11  CA  SER A   6       4.165  -5.624  24.563  0.00  0.00    +0.184 C 
BRANCH  11  12
ATOM     12  C   SER A   6       3.536  -4.805  25.705  0.00  0.00    +0.236 C 
ATOM     13  N   GLN A   7       4.411  -4.309  26.637  0.00  0.00    -0.302 N 
ATOM     14  H   GLN A   7       5.411  -4.486  26.569  0.00  0.00    +0.150 HD
ATOM     15  O   SER A   6       2.317  -4.642  25.779  0.00  0.00    -0.274 OA
BRANCH  13  16
ATOM     16  CA  GLN A   7       3.986  -3.481  27.770  0.00  0.00    +0.159 C 
BRANCH  16  17
ATOM     17  C   GLN A   7       4.546  -2.072  27.489  0.00  0.00    +0.234 C 
ATOM     18  O   GLN A   7       3.870  -1.060  27.672  0.00  0.00    -0.274 OA
ATOM     19  N   ALA A   8       5.824  -2.028  26.997  0.00  0.00    -0.305 N 
ATOM     20  H   ALA A   8       6.362  -2.881  26.858  0.00  0.00    +0.149 HD
BRANCH  19  21
ATOM     21  CA  ALA A   8       6.481  -0.783  26.621  0.00  0.00    +0.133 C 
ATOM     22  CB  ALA A   8       7.994  -0.882  26.733  0.00  0.00    +0.035 C 
BRANCH  21  23
ATOM     23  C   ALA A   8       6.096  -0.463  25.183  0.00  0.00    +0.245 C 
ATOM     24  O   ALA A   8       5.220   0.347  24.884  0.00  0.00    -0.299 OA
ENDBRANCH  21  23
ENDBRANCH  19  21
ENDBRANCH  16  17
BRANCH  16  25
ATOM     25  CB  GLN A   7       4.523  -4.053  29.091  0.00  0.00    +0.041 C 
BRANCH  25  26
ATOM     26  CG  GLN A   7       4.429  -5.576  29.185  0.00  0.00    +0.098 C 
BRANCH  26  27
ATOM     27  CD  GLN A   7       5.702  -6.263  28.746  0.00  0.00    +0.211 C 
ATOM     28  NE2 GLN A   7       5.624  -7.608  28.551  0.00  0.00    -0.329 N 
ATOM     29 HE21 GLN A   7       4.765  -8.135  28.606  0.00  0.00    +0.145 HD
ATOM     30 HE22 GLN A   7       6.455  -8.075  28.213  0.00  0.00    +0.145 HD
ATOM     31  OE1 GLN A   7       6.747  -5.658  28.534  0.00  0.00    -0.276 OA
ENDBRANCH  26  27
ENDBRANCH  25  26
ENDBRANCH  16  25
ENDBRANCH  13  16
ENDBRANCH  11  12
BRANCH  11  32
ATOM     32  CB  SER A   6       4.269  -7.108  24.936  0.00  0.00    +0.187 C 
BRANCH  32  33
ATOM     33  OG  SER A   6       3.607  -7.389  26.169  0.00  0.00    -0.393 OA
ATOM     34  H   SER A   6       3.458  -8.352  26.194  0.00  0.00    +0.209 HD
ENDBRANCH  32  33
ENDBRANCH  11  32
ENDBRANCH   9  11
ENDBRANCH   6   7
BRANCH   6  35
ATOM     35  CB  SER A   5       7.855  -3.741  24.277  0.00  0.00    +0.187 C 
BRANCH  35  36
ATOM     36  OG  SER A   5       9.266  -3.933  24.173  0.00  0.00    -0.393 OA
ATOM     37  H   SER A   5       9.589  -3.300  23.509  0.00  0.00    +0.209 HD
ENDBRANCH  35  36
ENDBRANCH   6  35
ENDBRANCH   3   6
ENDBRANCH   1   2
BRANCH   1  40
ATOM     38  C   LEU A   3       6.856   1.803  22.170  0.00  0.00    +0.234 C 
ATOM     39  O   LEU A   3       5.940   2.035  21.376  0.00  0.00    -0.274 OA
ATOM     40  N   GLN A   4       7.576   0.634  22.136  0.00  0.00    -0.302 N 
ATOM     41  H   GLN A   4       8.365   0.494  22.765  0.00  0.00    +0.150 HD
BRANCH  38  42
ATOM     42  CA  LEU A   3       7.295   2.817  23.252  0.00  0.00    +0.159 C 
BRANCH  42  44
ATOM     43  C   LYS A   2       5.302   4.202  23.811  0.00  0.00    +0.234 C 
ATOM     44  N   LEU A   3       6.105   3.112  24.044  0.00  0.00    -0.302 N 
ATOM     45  H   LEU A   3       5.773   2.363  24.643  0.00  0.00    +0.150 HD
ATOM     46  O   LYS A   2       5.592   5.103  23.027  0.00  0.00    -0.274 OA
BRANCH  43  47
ATOM     47  CA  LYS A   2       3.961   4.179  24.569  0.00  0.00    +0.159 C 
BRANCH  47  50
ATOM     48  C   PRO A   1       3.850   3.309  26.877  0.00  0.00    +0.231 C 
ATOM     49  O   PRO A   1       3.176   2.336  26.529  0.00  0.00    -0.274 OA
ATOM     50  N   LYS A   2       4.261   4.273  25.990  0.00  0.00    -0.303 N 
ATOM     51  H   LYS A   2       4.757   5.097  26.317  0.00  0.00    +0.149 HD
BRANCH  48  57
ATOM     52  N   PRO A   1       3.457   2.758  29.259  0.00  0.00    -0.306 NA
ATOM     53  H   PRO A   1       2.859   2.156  28.679  0.00  0.00    +0.123 HD
ATOM     54  CD  PRO A   1       4.337   1.894  30.054  0.00  0.00    +0.081 C 
ATOM     55  CG  PRO A   1       5.544   1.648  29.174  0.00  0.00    +0.017 C 
ATOM     56  CB  PRO A   1       5.747   2.995  28.510  0.00  0.00    +0.029 C 
ATOM     57  CA  PRO A   1       4.327   3.521  28.327  0.00  0.00    +0.140 C 
ENDBRANCH  48  57
ENDBRANCH  47  50
BRANCH  47  58
ATOM     58  CB  LYS A   2       3.063   5.342  24.108  0.00  0.00    +0.032 C 
BRANCH  58  59
ATOM     59  CG  LYS A   2       1.995   4.899  23.105  0.00  0.00    +0.007 C 
BRANCH  59  60
ATOM     60  CD  LYS A   2       1.893   3.378  22.977  0.00  0.00    +0.051 C 
BRANCH  60  61
ATOM     61  CE  LYS A   2       1.914   2.991  21.503  0.00  0.00    +0.127 C 
BRANCH  61  62
ATOM     62  NZ  LYS A   2       3.301   3.010  20.994  0.00  0.00    +0.219 N 
ATOM     63  HZ1 LYS A   2       3.366   3.402  20.047  0.00  0.00    +0.199 HD
ATOM     64  HZ2 LYS A   2       3.660   2.043  20.972  0.00  0.00    +0.199 HD
ATOM     65  HZ3 LYS A   2       3.926   3.540  21.612  0.00  0.00    +0.199 HD
ENDBRANCH  61  62
ENDBRANCH  60  61
ENDBRANCH  59  60
ENDBRANCH  58  59
ENDBRANCH  47  58
ENDBRANCH  43  47
ENDBRANCH  42  44
BRANCH  42  66
ATOM     66  CB  LEU A   3       8.421   2.245  24.123  0.00  0.00    +0.034 C 
BRANCH  66  67
ATOM     67  CG  LEU A   3       9.764   2.996  24.004  0.00  0.00    -0.015 C 
ATOM     68  CD2 LEU A   3       9.572   4.510  23.895  0.00  0.00    +0.007 C 
ATOM     69  CD1 LEU A   3      10.534   2.491  22.781  0.00  0.00    +0.007 C 
ENDBRANCH  66  67
ENDBRANCH  42  66
ENDBRANCH  38  42
ENDBRANCH   1  40
BRANCH   1  70
ATOM     70  CB  GLN A   4       8.086  -0.125  19.850  0.00  0.00    +0.041 C 
BRANCH  70  71
ATOM     71  CG  GLN A   4       7.244   0.614  18.812  0.00  0.00    +0.098 C 
BRANCH  71  72
ATOM     72  CD  GLN A   4       5.965  -0.159  18.549  0.00  0.00    +0.211 C 
ATOM     73  OE1 GLN A   4       5.939  -1.326  18.157  0.00  0.00    -0.276 OA
ATOM     74  NE2 GLN A   4       4.820   0.510  18.861  0.00  0.00    -0.329 N 
ATOM     75 HE21 GLN A   4       3.926   0.070  18.679  0.00  0.00    +0.145 HD
ATOM     76 HE22 GLN A   4       4.805   1.496  19.094  0.00  0.00    +0.145 HD
ENDBRANCH  71  72
ENDBRANCH  70  71
ENDBRANCH   1  70
TORSDOF 32
ENDMDL
MODEL 17
REMARK VINA RESULT:      -5.3      1.991      6.182
REMARK  Name = PKLQSSQA-mmff94.pdb
REMARK  35 active torsions:
REMARK  status: ('A' for Active; 'I' for Inactive)
REMARK    1  A    between atoms: _2  and  _3
REMARK    2  A    between atoms: _15  and  _16
REMARK    3  A    between atoms: _16  and  _17
REMARK    4  A    between atoms: _16  and  _19
REMARK    5  A    between atoms: _19  and  _20
REMARK    6  A    between atoms: _20  and  _21
REMARK    7  A    between atoms: _21  and  _22
REMARK    8  A    between atoms: _22  and  _23
REMARK    9  A    between atoms: _37  and  _38
REMARK   10  A    between atoms: _38  and  _39
REMARK   11  A    between atoms: _38  and  _41
REMARK   12  A    between atoms: _41  and  _42
REMARK   13  A    between atoms: _42  and  _43
REMARK   14  A    between atoms: _42  and  _44
REMARK   15  A    between atoms: _56  and  _57
REMARK   16  A    between atoms: _57  and  _58
REMARK   17  A    between atoms: _57  and  _60
REMARK   18  A    between atoms: _60  and  _61
REMARK   19  A    between atoms: _61  and  _62
REMARK   20  A    between atoms: _73  and  _74
REMARK   21  A    between atoms: _74  and  _75
REMARK   22  A    between atoms: _74  and  _77
REMARK   23  A    between atoms: _77  and  _78
REMARK   24  A    between atoms: _84  and  _85
REMARK   25  A    between atoms: _85  and  _86
REMARK   26  A    between atoms: _85  and  _88
REMARK   27  A    between atoms: _88  and  _89
REMARK   28  A    between atoms: _95  and  _96
REMARK   29  A    between atoms: _96  and  _97
REMARK   30  A    between atoms: _96  and  _99
REMARK   31  A    between atoms: _99  and  _100
REMARK   32  A    between atoms: _100  and  _101
REMARK   33  A    between atoms: _112  and  _113
REMARK   34  A    between atoms: _113  and  _114
REMARK   35  A    between atoms: _113  and  _116
REMARK                            x       y       z     vdW  Elec       q    Type
REMARK                         _______ _______ _______ _____ _____    ______ ____
ROOT
ATOM      1  CA  GLN A   4       4.942   2.812  23.319  0.00  0.00    +0.159 C 
ENDROOT
BRANCH   1   2
ATOM      2  C   GLN A   4       6.355   3.421  23.216  0.00  0.00    +0.234 C 
ATOM      3  N   SER A   5       7.319   2.845  24.000  0.00  0.00    -0.301 N 
ATOM      4  H   SER A   5       7.103   2.118  24.677  0.00  0.00    +0.150 HD
ATOM      5  O   GLN A   4       6.603   4.351  22.448  0.00  0.00    -0.274 OA
BRANCH   3   6
ATOM      6  CA  SER A   5       8.725   3.274  23.953  0.00  0.00    +0.184 C 
BRANCH   6   7
ATOM      7  C   SER A   5       9.596   2.054  24.307  0.00  0.00    +0.236 C 
ATOM      8  O   SER A   5      10.803   2.028  24.060  0.00  0.00    -0.274 OA
ATOM      9  N   SER A   6       8.953   1.030  24.959  0.00  0.00    -0.300 N 
ATOM     10  H   SER A   6       7.940   1.038  25.073  0.00  0.00    +0.150 HD
BRANCH   9  11
ATOM     11  CA  SER A   6       9.587  -0.273  25.202  0.00  0.00    +0.184 C 
BRANCH  11  12
ATOM     12  C   SER A   6       9.464  -1.087  23.901  0.00  0.00    +0.236 C 
ATOM     13  N   GLN A   7       8.277  -0.960  23.227  0.00  0.00    -0.302 N 
ATOM     14  H   GLN A   7       7.529  -0.367  23.581  0.00  0.00    +0.150 HD
ATOM     15  O   SER A   6      10.373  -1.825  23.520  0.00  0.00    -0.274 OA
BRANCH  13  16
ATOM     16  CA  GLN A   7       8.004  -1.638  21.956  0.00  0.00    +0.159 C 
BRANCH  16  17
ATOM     17  C   GLN A   7       7.933  -0.519  20.895  0.00  0.00    +0.234 C 
ATOM     18  O   GLN A   7       8.866   0.264  20.719  0.00  0.00    -0.274 OA
ATOM     19  N   ALA A   8       6.759  -0.441  20.193  0.00  0.00    -0.305 N 
ATOM     20  H   ALA A   8       6.005  -1.105  20.356  0.00  0.00    +0.149 HD
BRANCH  19  21
ATOM     21  CA  ALA A   8       6.504   0.593  19.199  0.00  0.00    +0.133 C 
ATOM     22  CB  ALA A   8       5.955   0.015  17.904  0.00  0.00    +0.035 C 
BRANCH  21  23
ATOM     23  C   ALA A   8       5.498   1.573  19.787  0.00  0.00    +0.245 C 
ATOM     24  O   ALA A   8       4.367   1.734  19.330  0.00  0.00    -0.299 OA
ENDBRANCH  21  23
ENDBRANCH  19  21
ENDBRANCH  16  17
BRANCH  16  25
ATOM     25  CB  GLN A   7       6.691  -2.431  22.034  0.00  0.00    +0.041 C 
BRANCH  25  26
ATOM     26  CG  GLN A   7       6.527  -3.224  23.332  0.00  0.00    +0.098 C 
BRANCH  26  27
ATOM     27  CD  GLN A   7       7.474  -4.400  23.415  0.00  0.00    +0.211 C 
ATOM     28  NE2 GLN A   7       8.427  -4.337  24.384  0.00  0.00    -0.329 N 
ATOM     29 HE21 GLN A   7       8.476  -3.606  25.078  0.00  0.00    +0.145 HD
ATOM     30 HE22 GLN A   7       9.039  -5.137  24.482  0.00  0.00    +0.145 HD
ATOM     31  OE1 GLN A   7       7.384  -5.380  22.685  0.00  0.00    -0.276 OA
ENDBRANCH  26  27
ENDBRANCH  25  26
ENDBRANCH  16  25
ENDBRANCH  13  16
ENDBRANCH  11  12
BRANCH  11  32
ATOM     32  CB  SER A   6       8.955  -1.017  26.385  0.00  0.00    +0.187 C 
BRANCH  32  33
ATOM     33  OG  SER A   6       7.804  -1.763  25.985  0.00  0.00    -0.393 OA
ATOM     34  H   SER A   6       8.124  -2.634  25.688  0.00  0.00    +0.209 HD
ENDBRANCH  32  33
ENDBRANCH  11  32
ENDBRANCH   9  11
ENDBRANCH   6   7
BRANCH   6  35
ATOM     35  CB  SER A   5       9.011   4.454  24.891  0.00  0.00    +0.187 C 
BRANCH  35  36
ATOM     36  OG  SER A   5       8.204   4.392  26.068  0.00  0.00    -0.393 OA
ATOM     37  H   SER A   5       8.806   4.468  26.828  0.00  0.00    +0.209 HD
ENDBRANCH  35  36
ENDBRANCH   6  35
ENDBRANCH   3   6
ENDBRANCH   1   2
BRANCH   1  40
ATOM     38  C   LEU A   3       5.364   1.005  24.981  0.00  0.00    +0.234 C 
ATOM     39  O   LEU A   3       5.950   0.303  24.154  0.00  0.00    -0.274 OA
ATOM     40  N   GLN A   4       4.850   2.238  24.663  0.00  0.00    -0.302 N 
ATOM     41  H   GLN A   4       4.319   2.771  25.350  0.00  0.00    +0.150 HD
BRANCH  38  42
ATOM     42  CA  LEU A   3       5.128   0.550  26.440  0.00  0.00    +0.159 C 
BRANCH  42  44
ATOM     43  C   LYS A   2       3.929  -1.634  26.399  0.00  0.00    +0.234 C 
ATOM     44  N   LEU A   3       5.097  -0.910  26.413  0.00  0.00    -0.302 N 
ATOM     45  H   LEU A   3       5.975  -1.369  26.191  0.00  0.00    +0.150 HD
ATOM     46  O   LYS A   2       2.819  -1.133  26.564  0.00  0.00    -0.274 OA
BRANCH  43  47
ATOM     47  CA  LYS A   2       4.112  -3.132  26.094  0.00  0.00    +0.159 C 
BRANCH  47  50
ATOM     48  C   PRO A   1       5.510  -4.415  27.674  0.00  0.00    +0.231 C 
ATOM     49  O   PRO A   1       6.460  -4.443  26.888  0.00  0.00    -0.274 OA
ATOM     50  N   LYS A   2       4.315  -3.815  27.363  0.00  0.00    -0.303 N 
ATOM     51  H   LYS A   2       3.529  -3.868  28.004  0.00  0.00    +0.149 HD
BRANCH  48  57
ATOM     52  N   PRO A   1       4.395  -4.586  29.879  0.00  0.00    -0.306 NA
ATOM     53  H   PRO A   1       3.754  -4.127  29.221  0.00  0.00    +0.123 HD
ATOM     54  CD  PRO A   1       3.746  -5.804  30.374  0.00  0.00    +0.081 C 
ATOM     55  CG  PRO A   1       4.109  -6.878  29.370  0.00  0.00    +0.017 C 
ATOM     56  CB  PRO A   1       5.547  -6.540  29.033  0.00  0.00    +0.029 C 
ATOM     57  CA  PRO A   1       5.580  -5.016  29.092  0.00  0.00    +0.140 C 
ENDBRANCH  48  57
ENDBRANCH  47  50
BRANCH  47  58
ATOM     58  CB  LYS A   2       2.881  -3.684  25.350  0.00  0.00    +0.032 C 
BRANCH  58  59
ATOM     59  CG  LYS A   2       3.251  -4.729  24.295  0.00  0.00    +0.007 C 
BRANCH  59  60
ATOM     60  CD  LYS A   2       2.779  -6.137  24.661  0.00  0.00    +0.051 C 
BRANCH  60  61
ATOM     61  CE  LYS A   2       3.897  -6.872  25.392  0.00  0.00    +0.127 C 
BRANCH  61  62
ATOM     62  NZ  LYS A   2       5.205  -6.516  24.805  0.00  0.00    +0.219 N 
ATOM     63  HZ1 LYS A   2       5.115  -5.875  24.007  0.00  0.00    +0.199 HD
ATOM     64  HZ2 LYS A   2       5.670  -7.378  24.480  0.00  0.00    +0.199 HD
ATOM     65  HZ3 LYS A   2       5.830  -6.089  25.498  0.00  0.00    +0.199 HD
ENDBRANCH  61  62
ENDBRANCH  60  61
ENDBRANCH  59  60
ENDBRANCH  58  59
ENDBRANCH  47  58
ENDBRANCH  43  47
ENDBRANCH  42  44
BRANCH  42  66
ATOM     66  CB  LEU A   3       6.233   1.070  27.369  0.00  0.00    +0.034 C 
BRANCH  66  67
ATOM     67  CG  LEU A   3       5.902   0.969  28.872  0.00  0.00    -0.015 C 
ATOM     68  CD2 LEU A   3       4.477   1.431  29.183  0.00  0.00    +0.007 C 
ATOM     69  CD1 LEU A   3       6.896   1.808  29.680  0.00  0.00    +0.007 C 
ENDBRANCH  66  67
ENDBRANCH  42  66
ENDBRANCH  38  42
ENDBRANCH   1  40
BRANCH   1  70
ATOM     70  CB  GLN A   4       3.856   3.880  23.121  0.00  0.00    +0.041 C 
BRANCH  70  71
ATOM     71  CG  GLN A   4       2.641   3.375  22.347  0.00  0.00    +0.098 C 
BRANCH  71  72
ATOM     72  CD  GLN A   4       2.432   4.229  21.110  0.00  0.00    +0.211 C 
ATOM     73  OE1 GLN A   4       1.780   3.867  20.131  0.00  0.00    -0.276 OA
ATOM     74  NE2 GLN A   4       2.955   5.485  21.189  0.00  0.00    -0.329 N 
ATOM     75 HE21 GLN A   4       2.886   6.100  20.388  0.00  0.00    +0.145 HD
ATOM     76 HE22 GLN A   4       3.573   5.777  21.938  0.00  0.00    +0.145 HD
ENDBRANCH  71  72
ENDBRANCH  70  71
ENDBRANCH   1  70
TORSDOF 32
ENDMDL
MODEL 18
REMARK VINA RESULT:      -5.2      2.242      8.404
REMARK  Name = PKLQSSQA-mmff94.pdb
REMARK  35 active torsions:
REMARK  status: ('A' for Active; 'I' for Inactive)
REMARK    1  A    between atoms: _2  and  _3
REMARK    2  A    between atoms: _15  and  _16
REMARK    3  A    between atoms: _16  and  _17
REMARK    4  A    between atoms: _16  and  _19
REMARK    5  A    between atoms: _19  and  _20
REMARK    6  A    between atoms: _20  and  _21
REMARK    7  A    between atoms: _21  and  _22
REMARK    8  A    between atoms: _22  and  _23
REMARK    9  A    between atoms: _37  and  _38
REMARK   10  A    between atoms: _38  and  _39
REMARK   11  A    between atoms: _38  and  _41
REMARK   12  A    between atoms: _41  and  _42
REMARK   13  A    between atoms: _42  and  _43
REMARK   14  A    between atoms: _42  and  _44
REMARK   15  A    between atoms: _56  and  _57
REMARK   16  A    between atoms: _57  and  _58
REMARK   17  A    between atoms: _57  and  _60
REMARK   18  A    between atoms: _60  and  _61
REMARK   19  A    between atoms: _61  and  _62
REMARK   20  A    between atoms: _73  and  _74
REMARK   21  A    between atoms: _74  and  _75
REMARK   22  A    between atoms: _74  and  _77
REMARK   23  A    between atoms: _77  and  _78
REMARK   24  A    between atoms: _84  and  _85
REMARK   25  A    between atoms: _85  and  _86
REMARK   26  A    between atoms: _85  and  _88
REMARK   27  A    between atoms: _88  and  _89
REMARK   28  A    between atoms: _95  and  _96
REMARK   29  A    between atoms: _96  and  _97
REMARK   30  A    between atoms: _96  and  _99
REMARK   31  A    between atoms: _99  and  _100
REMARK   32  A    between atoms: _100  and  _101
REMARK   33  A    between atoms: _112  and  _113
REMARK   34  A    between atoms: _113  and  _114
REMARK   35  A    between atoms: _113  and  _116
REMARK                            x       y       z     vdW  Elec       q    Type
REMARK                         _______ _______ _______ _____ _____    ______ ____
ROOT
ATOM      1  CA  GLN A   4       7.490   0.281  21.110  0.00  0.00    +0.159 C 
ENDROOT
BRANCH   1   2
ATOM      2  C   GLN A   4       8.703  -0.321  21.849  0.00  0.00    +0.234 C 
ATOM      3  N   SER A   5       8.497  -0.680  23.154  0.00  0.00    -0.301 N 
ATOM      4  H   SER A   5       7.626  -0.483  23.639  0.00  0.00    +0.150 HD
ATOM      5  O   GLN A   4       9.782  -0.494  21.283  0.00  0.00    -0.274 OA
BRANCH   3   6
ATOM      6  CA  SER A   5       9.541  -1.331  23.960  0.00  0.00    +0.184 C 
BRANCH   6   7
ATOM      7  C   SER A   5       8.972  -2.670  24.465  0.00  0.00    +0.236 C 
ATOM      8  O   SER A   5       9.580  -3.730  24.311  0.00  0.00    -0.274 OA
ATOM      9  N   SER A   6       7.778  -2.595  25.140  0.00  0.00    -0.300 N 
ATOM     10  H   SER A   6       7.253  -1.722  25.178  0.00  0.00    +0.150 HD
BRANCH   9  11
ATOM     11  CA  SER A   6       7.011  -3.789  25.523  0.00  0.00    +0.184 C 
BRANCH  11  12
ATOM     12  C   SER A   6       5.530  -3.372  25.594  0.00  0.00    +0.236 C 
ATOM     13  N   GLN A   7       4.618  -4.388  25.464  0.00  0.00    -0.302 N 
ATOM     14  H   GLN A   7       4.915  -5.350  25.323  0.00  0.00    +0.150 HD
ATOM     15  O   SER A   6       5.203  -2.192  25.727  0.00  0.00    -0.274 OA
BRANCH  13  16
ATOM     16  CA  GLN A   7       3.169  -4.173  25.540  0.00  0.00    +0.159 C 
BRANCH  16  17
ATOM     17  C   GLN A   7       2.739  -4.727  26.915  0.00  0.00    +0.234 C 
ATOM     18  O   GLN A   7       1.763  -4.277  27.515  0.00  0.00    -0.274 OA
ATOM     19  N   ALA A   8       3.529  -5.721  27.428  0.00  0.00    -0.305 N 
ATOM     20  H   ALA A   8       4.329  -6.077  26.908  0.00  0.00    +0.149 HD
BRANCH  19  21
ATOM     21  CA  ALA A   8       3.299  -6.311  28.740  0.00  0.00    +0.133 C 
ATOM     22  CB  ALA A   8       2.177  -7.337  28.715  0.00  0.00    +0.035 C 
BRANCH  21  23
ATOM     23  C   ALA A   8       4.591  -6.980  29.188  0.00  0.00    +0.245 C 
ATOM     24  O   ALA A   8       5.483  -7.315  28.409  0.00  0.00    -0.299 OA
ENDBRANCH  21  23
ENDBRANCH  19  21
ENDBRANCH  16  17
BRANCH  16  25
ATOM     25  CB  GLN A   7       2.452  -4.894  24.388  0.00  0.00    +0.041 C 
BRANCH  25  26
ATOM     26  CG  GLN A   7       3.341  -5.883  23.633  0.00  0.00    +0.098 C 
BRANCH  26  27
ATOM     27  CD  GLN A   7       3.272  -7.280  24.208  0.00  0.00    +0.211 C 
ATOM     28  NE2 GLN A   7       2.358  -8.116  23.644  0.00  0.00    -0.329 N 
ATOM     29 HE21 GLN A   7       1.804  -7.881  22.835  0.00  0.00    +0.145 HD
ATOM     30 HE22 GLN A   7       2.331  -9.068  23.987  0.00  0.00    +0.145 HD
ATOM     31  OE1 GLN A   7       4.011  -7.669  25.104  0.00  0.00    -0.276 OA
ENDBRANCH  26  27
ENDBRANCH  25  26
ENDBRANCH  16  25
ENDBRANCH  13  16
ENDBRANCH  11  12
BRANCH  11  32
ATOM     32  CB  SER A   6       7.485  -4.385  26.854  0.00  0.00    +0.187 C 
BRANCH  32  33
ATOM     33  OG  SER A   6       6.433  -4.420  27.820  0.00  0.00    -0.393 OA
ATOM     34  H   SER A   6       5.755  -5.028  27.474  0.00  0.00    +0.209 HD
ENDBRANCH  32  33
ENDBRANCH  11  32
ENDBRANCH   9  11
ENDBRANCH   6   7
BRANCH   6  35
ATOM     35  CB  SER A   5      10.016  -0.453  25.126  0.00  0.00    +0.187 C 
BRANCH  35  36
ATOM     36  OG  SER A   5       8.932   0.270  25.709  0.00  0.00    -0.393 OA
ATOM     37  H   SER A   5       8.428   0.664  24.977  0.00  0.00    +0.209 HD
ENDBRANCH  35  36
ENDBRANCH   6  35
ENDBRANCH   3   6
ENDBRANCH   1   2
BRANCH   1  40
ATOM     38  C   LEU A   3       6.695   2.028  22.696  0.00  0.00    +0.234 C 
ATOM     39  O   LEU A   3       6.117   1.201  23.406  0.00  0.00    -0.274 OA
ATOM     40  N   GLN A   4       7.389   1.667  21.569  0.00  0.00    -0.302 N 
ATOM     41  H   GLN A   4       7.807   2.376  20.968  0.00  0.00    +0.150 HD
BRANCH  38  42
ATOM     42  CA  LEU A   3       6.663   3.546  22.993  0.00  0.00    +0.159 C 
BRANCH  42  44
ATOM     43  C   LYS A   2       5.204   4.317  24.860  0.00  0.00    +0.234 C 
ATOM     44  N   LEU A   3       6.334   3.679  24.410  0.00  0.00    -0.302 N 
ATOM     45  H   LEU A   3       6.869   3.096  25.046  0.00  0.00    +0.150 HD
ATOM     46  O   LYS A   2       4.453   4.961  24.130  0.00  0.00    -0.274 OA
BRANCH  43  47
ATOM     47  CA  LYS A   2       4.907   4.108  26.356  0.00  0.00    +0.159 C 
BRANCH  47  50
ATOM     48  C   PRO A   1       3.480   2.266  27.175  0.00  0.00    +0.231 C 
ATOM     49  O   PRO A   1       2.647   3.051  27.634  0.00  0.00    -0.274 OA
ATOM     50  N   LYS A   2       4.627   2.693  26.552  0.00  0.00    -0.303 N 
ATOM     51  H   LYS A   2       5.326   2.024  26.244  0.00  0.00    +0.149 HD
BRANCH  48  57
ATOM     52  N   PRO A   1       4.591   0.092  27.586  0.00  0.00    -0.306 NA
ATOM     53  H   PRO A   1       5.228   0.845  27.870  0.00  0.00    +0.123 HD
ATOM     54  CD  PRO A   1       4.331  -0.750  28.759  0.00  0.00    +0.081 C 
ATOM     55  CG  PRO A   1       3.153  -0.101  29.454  0.00  0.00    +0.017 C 
ATOM     56  CB  PRO A   1       2.288   0.343  28.291  0.00  0.00    +0.029 C 
ATOM     57  CA  PRO A   1       3.303   0.736  27.221  0.00  0.00    +0.140 C 
ENDBRANCH  48  57
ENDBRANCH  47  50
BRANCH  47  58
ATOM     58  CB  LYS A   2       6.103   4.566  27.211  0.00  0.00    +0.032 C 
BRANCH  58  59
ATOM     59  CG  LYS A   2       6.973   3.398  27.680  0.00  0.00    +0.007 C 
BRANCH  59  60
ATOM     60  CD  LYS A   2       6.950   3.210  29.197  0.00  0.00    +0.051 C 
BRANCH  60  61
ATOM     61  CE  LYS A   2       7.114   1.731  29.527  0.00  0.00    +0.127 C 
BRANCH  61  62
ATOM     62  NZ  LYS A   2       7.594   0.997  28.338  0.00  0.00    +0.219 N 
ATOM     63  HZ1 LYS A   2       8.400   1.455  27.895  0.00  0.00    +0.199 HD
ATOM     64  HZ2 LYS A   2       6.829   0.945  27.647  0.00  0.00    +0.199 HD
ATOM     65  HZ3 LYS A   2       7.850   0.030  28.565  0.00  0.00    +0.199 HD
ENDBRANCH  61  62
ENDBRANCH  60  61
ENDBRANCH  59  60
ENDBRANCH  58  59
ENDBRANCH  47  58
ENDBRANCH  43  47
ENDBRANCH  42  44
BRANCH  42  66
ATOM     66  CB  LEU A   3       8.010   4.203  22.665  0.00  0.00    +0.034 C 
BRANCH  66  67
ATOM     67  CG  LEU A   3       8.998   4.255  23.849  0.00  0.00    -0.015 C 
ATOM     68  CD2 LEU A   3       9.747   5.587  23.919  0.00  0.00    +0.007 C 
ATOM     69  CD1 LEU A   3      10.007   3.109  23.734  0.00  0.00    +0.007 C 
ENDBRANCH  66  67
ENDBRANCH  42  66
ENDBRANCH  38  42
ENDBRANCH   1  40
BRANCH   1  70
ATOM     70  CB  GLN A   4       7.684   0.236  19.587  0.00  0.00    +0.041 C 
BRANCH  70  71
ATOM     71  CG  GLN A   4       6.415  -0.136  18.823  0.00  0.00    +0.098 C 
BRANCH  71  72
ATOM     72  CD  GLN A   4       5.846   1.098  18.148  0.00  0.00    +0.211 C 
ATOM     73  OE1 GLN A   4       6.256   1.542  17.075  0.00  0.00    -0.276 OA
ATOM     74  NE2 GLN A   4       4.771   1.649  18.779  0.00  0.00    -0.329 N 
ATOM     75 HE21 GLN A   4       4.360   2.495  18.407  0.00  0.00    +0.145 HD
ATOM     76 HE22 GLN A   4       4.472   1.365  19.706  0.00  0.00    +0.145 HD
ENDBRANCH  71  72
ENDBRANCH  70  71
ENDBRANCH   1  70
TORSDOF 32
ENDMDL
MODEL 19
REMARK VINA RESULT:      -5.2      2.023      8.775
REMARK  Name = PKLQSSQA-mmff94.pdb
REMARK  35 active torsions:
REMARK  status: ('A' for Active; 'I' for Inactive)
REMARK    1  A    between atoms: _2  and  _3
REMARK    2  A    between atoms: _15  and  _16
REMARK    3  A    between atoms: _16  and  _17
REMARK    4  A    between atoms: _16  and  _19
REMARK    5  A    between atoms: _19  and  _20
REMARK    6  A    between atoms: _20  and  _21
REMARK    7  A    between atoms: _21  and  _22
REMARK    8  A    between atoms: _22  and  _23
REMARK    9  A    between atoms: _37  and  _38
REMARK   10  A    between atoms: _38  and  _39
REMARK   11  A    between atoms: _38  and  _41
REMARK   12  A    between atoms: _41  and  _42
REMARK   13  A    between atoms: _42  and  _43
REMARK   14  A    between atoms: _42  and  _44
REMARK   15  A    between atoms: _56  and  _57
REMARK   16  A    between atoms: _57  and  _58
REMARK   17  A    between atoms: _57  and  _60
REMARK   18  A    between atoms: _60  and  _61
REMARK   19  A    between atoms: _61  and  _62
REMARK   20  A    between atoms: _73  and  _74
REMARK   21  A    between atoms: _74  and  _75
REMARK   22  A    between atoms: _74  and  _77
REMARK   23  A    between atoms: _77  and  _78
REMARK   24  A    between atoms: _84  and  _85
REMARK   25  A    between atoms: _85  and  _86
REMARK   26  A    between atoms: _85  and  _88
REMARK   27  A    between atoms: _88  and  _89
REMARK   28  A    between atoms: _95  and  _96
REMARK   29  A    between atoms: _96  and  _97
REMARK   30  A    between atoms: _96  and  _99
REMARK   31  A    between atoms: _99  and  _100
REMARK   32  A    between atoms: _100  and  _101
REMARK   33  A    between atoms: _112  and  _113
REMARK   34  A    between atoms: _113  and  _114
REMARK   35  A    between atoms: _113  and  _116
REMARK                            x       y       z     vdW  Elec       q    Type
REMARK                         _______ _______ _______ _____ _____    ______ ____
ROOT
ATOM      1  CA  GLN A   4       6.736  -1.966  23.359  0.00  0.00    +0.159 C 
ENDROOT
BRANCH   1   2
ATOM      2  C   GLN A   4       5.995  -3.054  22.555  0.00  0.00    +0.234 C 
ATOM      3  N   SER A   5       5.862  -4.271  23.168  0.00  0.00    -0.301 N 
ATOM      4  H   SER A   5       6.300  -4.479  24.061  0.00  0.00    +0.150 HD
ATOM      5  O   GLN A   4       5.525  -2.825  21.441  0.00  0.00    -0.274 OA
BRANCH   3   6
ATOM      6  CA  SER A   5       5.117  -5.380  22.552  0.00  0.00    +0.184 C 
BRANCH   6   7
ATOM      7  C   SER A   5       4.440  -6.172  23.685  0.00  0.00    +0.236 C 
ATOM      8  O   SER A   5       4.853  -7.279  24.037  0.00  0.00    -0.274 OA
ATOM      9  N   SER A   6       3.390  -5.544  24.309  0.00  0.00    -0.300 N 
ATOM     10  H   SER A   6       3.013  -4.670  23.944  0.00  0.00    +0.150 HD
BRANCH   9  11
ATOM     11  CA  SER A   6       2.522  -6.229  25.277  0.00  0.00    +0.184 C 
BRANCH  11  12
ATOM     12  C   SER A   6       3.266  -6.237  26.626  0.00  0.00    +0.236 C 
ATOM     13  N   GLN A   7       4.405  -5.476  26.684  0.00  0.00    -0.302 N 
ATOM     14  H   GLN A   7       4.731  -4.950  25.876  0.00  0.00    +0.150 HD
ATOM     15  O   SER A   6       2.866  -6.915  27.573  0.00  0.00    -0.274 OA
BRANCH  13  16
ATOM     16  CA  GLN A   7       5.216  -5.345  27.898  0.00  0.00    +0.159 C 
BRANCH  16  17
ATOM     17  C   GLN A   7       4.621  -4.147  28.668  0.00  0.00    +0.234 C 
ATOM     18  O   GLN A   7       4.359  -4.217  29.868  0.00  0.00    -0.274 OA
ATOM     19  N   ALA A   8       4.379  -3.024  27.923  0.00  0.00    -0.305 N 
ATOM     20  H   ALA A   8       4.609  -2.992  26.931  0.00  0.00    +0.149 HD
BRANCH  19  21
ATOM     21  CA  ALA A   8       3.764  -1.826  28.480  0.00  0.00    +0.133 C 
ATOM     22  CB  ALA A   8       4.686  -0.621  28.398  0.00  0.00    +0.035 C 
BRANCH  21  23
ATOM     23  C   ALA A   8       2.487  -1.546  27.699  0.00  0.00    +0.245 C 
ATOM     24  O   ALA A   8       2.474  -1.301  26.494  0.00  0.00    -0.299 OA
ENDBRANCH  21  23
ENDBRANCH  19  21
ENDBRANCH  16  17
BRANCH  16  25
ATOM     25  CB  GLN A   7       6.693  -5.114  27.543  0.00  0.00    +0.041 C 
BRANCH  25  26
ATOM     26  CG  GLN A   7       7.096  -5.692  26.186  0.00  0.00    +0.098 C 
BRANCH  26  27
ATOM     27  CD  GLN A   7       8.402  -5.123  25.679  0.00  0.00    +0.211 C 
ATOM     28  NE2 GLN A   7       9.406  -5.016  26.592  0.00  0.00    -0.329 N 
ATOM     29 HE21 GLN A   7       9.346  -5.363  27.537  0.00  0.00    +0.145 HD
ATOM     30 HE22 GLN A   7      10.300  -4.679  26.257  0.00  0.00    +0.145 HD
ATOM     31  OE1 GLN A   7       8.580  -4.805  24.509  0.00  0.00    -0.276 OA
ENDBRANCH  26  27
ENDBRANCH  25  26
ENDBRANCH  16  25
ENDBRANCH  13  16
ENDBRANCH  11  12
BRANCH  11  32
ATOM     32  CB  SER A   6       2.161  -7.651  24.834  0.00  0.00    +0.187 C 
BRANCH  32  33
ATOM     33  OG  SER A   6       2.972  -8.630  25.486  0.00  0.00    -0.393 OA
ATOM     34  H   SER A   6       2.470  -8.936  26.263  0.00  0.00    +0.209 HD
ENDBRANCH  32  33
ENDBRANCH  11  32
ENDBRANCH   9  11
ENDBRANCH   6   7
BRANCH   6  35
ATOM     35  CB  SER A   5       6.014  -6.286  21.697  0.00  0.00    +0.187 C 
BRANCH  35  36
ATOM     36  OG  SER A   5       7.344  -6.339  22.212  0.00  0.00    -0.393 OA
ATOM     37  H   SER A   5       7.750  -7.152  21.865  0.00  0.00    +0.209 HD
ENDBRANCH  35  36
ENDBRANCH   6  35
ENDBRANCH   3   6
ENDBRANCH   1   2
BRANCH   1  40
ATOM     38  C   LEU A   3       7.152  -0.000  21.888  0.00  0.00    +0.234 C 
ATOM     39  O   LEU A   3       8.259  -0.420  21.543  0.00  0.00    -0.274 OA
ATOM     40  N   GLN A   4       6.346  -0.690  22.759  0.00  0.00    -0.302 N 
ATOM     41  H   GLN A   4       5.462  -0.291  23.073  0.00  0.00    +0.150 HD
BRANCH  38  42
ATOM     42  CA  LEU A   3       6.586   1.353  21.396  0.00  0.00    +0.159 C 
BRANCH  42  44
ATOM     43  C   LYS A   2       6.468   3.327  22.911  0.00  0.00    +0.234 C 
ATOM     44  N   LEU A   3       7.198   2.381  22.233  0.00  0.00    -0.302 N 
ATOM     45  H   LEU A   3       8.177   2.241  22.464  0.00  0.00    +0.150 HD
ATOM     46  O   LYS A   2       5.260   3.491  22.756  0.00  0.00    -0.274 OA
BRANCH  43  47
ATOM     47  CA  LYS A   2       7.276   4.135  23.943  0.00  0.00    +0.159 C 
BRANCH  47  50
ATOM     48  C   PRO A   1       5.969   4.419  26.019  0.00  0.00    +0.231 C 
ATOM     49  O   PRO A   1       5.505   5.496  25.637  0.00  0.00    -0.274 OA
ATOM     50  N   LYS A   2       6.859   3.694  25.266  0.00  0.00    -0.303 N 
ATOM     51  H   LYS A   2       7.277   2.845  25.636  0.00  0.00    +0.149 HD
BRANCH  48  57
ATOM     52  N   PRO A   1       6.652   2.847  27.807  0.00  0.00    -0.306 NA
ATOM     53  H   PRO A   1       7.455   3.010  27.187  0.00  0.00    +0.123 HD
ATOM     54  CD  PRO A   1       7.030   3.264  29.161  0.00  0.00    +0.081 C 
ATOM     55  CG  PRO A   1       6.700   4.741  29.224  0.00  0.00    +0.017 C 
ATOM     56  CB  PRO A   1       5.402   4.820  28.444  0.00  0.00    +0.029 C 
ATOM     57  CA  PRO A   1       5.573   3.764  27.357  0.00  0.00    +0.140 C 
ENDBRANCH  48  57
ENDBRANCH  47  50
BRANCH  47  58
ATOM     58  CB  LYS A   2       8.786   3.923  23.731  0.00  0.00    +0.032 C 
BRANCH  58  59
ATOM     59  CG  LYS A   2       9.339   2.759  24.557  0.00  0.00    +0.007 C 
BRANCH  59  60
ATOM     60  CD  LYS A   2      10.437   1.981  23.830  0.00  0.00    +0.051 C 
BRANCH  60  61
ATOM     61  CE  LYS A   2      10.724   0.687  24.583  0.00  0.00    +0.127 C 
BRANCH  61  62
ATOM     62  NZ  LYS A   2      10.273  -0.473  23.787  0.00  0.00    +0.219 N 
ATOM     63  HZ1 LYS A   2       9.375  -0.849  24.116  0.00  0.00    +0.199 HD
ATOM     64  HZ2 LYS A   2      10.983  -1.219  23.854  0.00  0.00    +0.199 HD
ATOM     65  HZ3 LYS A   2      10.186  -0.240  22.791  0.00  0.00    +0.199 HD
ENDBRANCH  61  62
ENDBRANCH  60  61
ENDBRANCH  59  60
ENDBRANCH  58  59
ENDBRANCH  47  58
ENDBRANCH  43  47
ENDBRANCH  42  44
BRANCH  42  66
ATOM     66  CB  LEU A   3       6.901   1.578  19.911  0.00  0.00    +0.034 C 
BRANCH  66  67
ATOM     67  CG  LEU A   3       5.830   1.031  18.943  0.00  0.00    -0.015 C 
ATOM     68  CD2 LEU A   3       6.185   1.298  17.479  0.00  0.00    +0.007 C 
ATOM     69  CD1 LEU A   3       4.472   1.662  19.261  0.00  0.00    +0.007 C 
ENDBRANCH  66  67
ENDBRANCH  42  66
ENDBRANCH  38  42
ENDBRANCH   1  40
BRANCH   1  70
ATOM     70  CB  GLN A   4       6.342  -2.000  24.844  0.00  0.00    +0.041 C 
BRANCH  70  71
ATOM     71  CG  GLN A   4       7.491  -1.645  25.785  0.00  0.00    +0.098 C 
BRANCH  71  72
ATOM     72  CD  GLN A   4       7.435  -0.167  26.123  0.00  0.00    +0.211 C 
ATOM     73  OE1 GLN A   4       6.714   0.642  25.538  0.00  0.00    -0.276 OA
ATOM     74  NE2 GLN A   4       8.189   0.202  27.196  0.00  0.00    -0.329 N 
ATOM     75 HE21 GLN A   4       8.230   1.179  27.459  0.00  0.00    +0.145 HD
ATOM     76 HE22 GLN A   4       8.861  -0.418  27.635  0.00  0.00    +0.145 HD
ENDBRANCH  71  72
ENDBRANCH  70  71
ENDBRANCH   1  70
TORSDOF 32
ENDMDL
