MODEL 1
REMARK VINA RESULT:      -6.1      0.000      0.000
REMARK  Name = PMLQSADA-mmff94.pdb
REMARK  33 active torsions:
REMARK  status: ('A' for Active; 'I' for Inactive)
REMARK    1  A    between atoms: _2  and  _3
REMARK    2  A    between atoms: _15  and  _16
REMARK    3  A    between atoms: _16  and  _17
REMARK    4  A    between atoms: _16  and  _19
REMARK    5  A    between atoms: _19  and  _20
REMARK    6  A    between atoms: _20  and  _21
REMARK    7  A    between atoms: _21  and  _22
REMARK    8  A    between atoms: _32  and  _33
REMARK    9  A    between atoms: _33  and  _34
REMARK   10  A    between atoms: _33  and  _36
REMARK   11  A    between atoms: _36  and  _37
REMARK   12  A    between atoms: _37  and  _38
REMARK   13  A    between atoms: _37  and  _39
REMARK   14  A    between atoms: _51  and  _52
REMARK   15  A    between atoms: _52  and  _53
REMARK   16  A    between atoms: _52  and  _55
REMARK   17  A    between atoms: _55  and  _56
REMARK   18  A    between atoms: _56  and  _57
REMARK   19  A    between atoms: _68  and  _69
REMARK   20  A    between atoms: _69  and  _70
REMARK   21  A    between atoms: _69  and  _72
REMARK   22  A    between atoms: _72  and  _73
REMARK   23  A    between atoms: _79  and  _80
REMARK   24  A    between atoms: _80  and  _81
REMARK   25  A    between atoms: _80  and  _83
REMARK   26  A    between atoms: _89  and  _90
REMARK   27  A    between atoms: _90  and  _91
REMARK   28  A    between atoms: _90  and  _93
REMARK   29  A    between atoms: _93  and  _94
REMARK   30  A    between atoms: _94  and  _95
REMARK   31  A    between atoms: _101  and  _102
REMARK   32  A    between atoms: _102  and  _103
REMARK   33  A    between atoms: _102  and  _105
REMARK                            x       y       z     vdW  Elec       q    Type
REMARK                         _______ _______ _______ _____ _____    ______ ____
ROOT
ATOM      1  CA  GLN A   4       8.515  -1.502  23.903  0.00  0.00    +0.159 C 
ENDROOT
BRANCH   1   2
ATOM      2  C   GLN A   4       8.310  -1.252  22.394  0.00  0.00    +0.234 C 
ATOM      3  N   SER A   5       7.142  -0.629  22.041  0.00  0.00    -0.301 N 
ATOM      4  H   SER A   5       6.475  -0.311  22.744  0.00  0.00    +0.150 HD
ATOM      5  O   GLN A   4       9.157  -1.575  21.561  0.00  0.00    -0.274 OA
BRANCH   3   6
ATOM      6  CA  SER A   5       6.871  -0.190  20.665  0.00  0.00    +0.184 C 
BRANCH   6   7
ATOM      7  C   SER A   5       6.173   1.181  20.741  0.00  0.00    +0.236 C 
ATOM      8  O   SER A   5       5.642   1.686  19.749  0.00  0.00    -0.274 OA
ATOM      9  N   ALA A   6       6.141   1.774  21.982  0.00  0.00    -0.303 N 
ATOM     10  H   ALA A   6       6.608   1.352  22.779  0.00  0.00    +0.149 HD
BRANCH   9  11
ATOM     11  CA  ALA A   6       5.521   3.077  22.200  0.00  0.00    +0.156 C 
ATOM     12  CB  ALA A   6       4.383   2.983  23.213  0.00  0.00    +0.038 C 
BRANCH  11  13
ATOM     13  C   ALA A   6       6.600   4.069  22.686  0.00  0.00    +0.234 C 
ATOM     14  N   ASP A   7       6.875   4.020  24.031  0.00  0.00    -0.302 N 
ATOM     15  H   ASP A   7       6.384   3.375  24.650  0.00  0.00    +0.150 HD
ATOM     16  O   ALA A   6       7.177   4.864  21.938  0.00  0.00    -0.274 OA
BRANCH  14  17
ATOM     17  CA  ASP A   7       7.948   4.812  24.631  0.00  0.00    +0.165 C 
BRANCH  17  18
ATOM     18  C   ASP A   7       9.291   4.214  24.180  0.00  0.00    +0.234 C 
ATOM     19  O   ASP A   7      10.220   4.933  23.809  0.00  0.00    -0.274 OA
ATOM     20  N   ALA A   8       9.369   2.844  24.219  0.00  0.00    -0.305 N 
ATOM     21  H   ALA A   8       8.546   2.274  24.432  0.00  0.00    +0.149 HD
BRANCH  20  22
ATOM     22  CA  ALA A   8      10.555   2.120  23.784  0.00  0.00    +0.133 C 
ATOM     23  CB  ALA A   8      10.816   0.867  24.611  0.00  0.00    +0.035 C 
BRANCH  22  24
ATOM     24  C   ALA A   8      10.381   1.712  22.328  0.00  0.00    +0.245 C 
ATOM     25  O   ALA A   8       9.333   1.851  21.702  0.00  0.00    -0.299 OA
ENDBRANCH  22  24
ENDBRANCH  20  22
ENDBRANCH  17  18
BRANCH  17  26
ATOM     26  CB  ASP A   7       7.856   4.810  26.151  0.00  0.00    +0.089 C 
BRANCH  26  27
ATOM     27  CG  ASP A   7       6.974   3.666  26.542  0.00  0.00    +0.025 C 
ATOM     28  OD1 ASP A   7       5.763   3.772  26.660  0.00  0.00    -0.851 OA
BRANCH  27  29
ATOM     29  OD2 ASP A   7       7.629   2.491  26.650  0.00  0.00    -0.526 OA
ATOM     30  HD2 ASP A   7       7.053   1.697  26.562  0.00  0.00    +0.290 HD
ENDBRANCH  27  29
ENDBRANCH  26  27
ENDBRANCH  17  26
ENDBRANCH  14  17
ENDBRANCH  11  13
ENDBRANCH   9  11
ENDBRANCH   6   7
BRANCH   6  31
ATOM     31  CB  SER A   5       6.028  -1.211  19.893  0.00  0.00    +0.187 C 
BRANCH  31  32
ATOM     32  OG  SER A   5       5.855  -0.825  18.529  0.00  0.00    -0.393 OA
ATOM     33  H   SER A   5       6.745  -0.655  18.171  0.00  0.00    +0.209 HD
ENDBRANCH  31  32
ENDBRANCH   6  31
ENDBRANCH   3   6
ENDBRANCH   1   2
BRANCH   1  36
ATOM     34  C   LEU A   3       6.475  -0.466  24.896  0.00  0.00    +0.234 C 
ATOM     35  O   LEU A   3       6.918   0.677  24.775  0.00  0.00    -0.274 OA
ATOM     36  N   GLN A   4       7.175  -1.577  24.491  0.00  0.00    -0.302 N 
ATOM     37  H   GLN A   4       6.795  -2.509  24.639  0.00  0.00    +0.150 HD
BRANCH  34  38
ATOM     38  CA  LEU A   3       5.073  -0.747  25.484  0.00  0.00    +0.159 C 
BRANCH  38  40
ATOM     39  C   MET A   2       3.978  -2.966  25.816  0.00  0.00    +0.234 C 
ATOM     40  N   LEU A   3       5.073  -2.145  25.913  0.00  0.00    -0.302 N 
ATOM     41  H   LEU A   3       5.980  -2.530  26.168  0.00  0.00    +0.150 HD
ATOM     42  O   MET A   2       2.883  -2.584  25.405  0.00  0.00    -0.274 OA
BRANCH  39  43
ATOM     43  CA  MET A   2       4.225  -4.434  26.215  0.00  0.00    +0.160 C 
BRANCH  43  46
ATOM     44  C   PRO A   1       4.748  -5.653  24.113  0.00  0.00    +0.231 C 
ATOM     45  O   PRO A   1       3.559  -5.849  23.858  0.00  0.00    -0.274 OA
ATOM     46  N   MET A   2       5.162  -4.985  25.239  0.00  0.00    -0.303 N 
ATOM     47  H   MET A   2       6.150  -4.818  25.409  0.00  0.00    +0.149 HD
BRANCH  44  53
ATOM     48  N   PRO A   1       5.336  -6.380  21.826  0.00  0.00    -0.306 NA
ATOM     49  H   PRO A   1       4.373  -6.023  21.829  0.00  0.00    +0.123 HD
ATOM     50  CD  PRO A   1       6.117  -5.547  20.905  0.00  0.00    +0.081 C 
ATOM     51  CG  PRO A   1       6.637  -4.401  21.746  0.00  0.00    +0.017 C 
ATOM     52  CB  PRO A   1       6.963  -5.080  23.063  0.00  0.00    +0.029 C 
ATOM     53  CA  PRO A   1       5.880  -6.143  23.191  0.00  0.00    +0.140 C 
ENDBRANCH  44  53
ENDBRANCH  43  46
BRANCH  43  54
ATOM     54  CB  MET A   2       4.772  -4.468  27.650  0.00  0.00    +0.042 C 
BRANCH  54  55
ATOM     55  CG  MET A   2       3.673  -4.578  28.705  0.00  0.00    +0.071 C 
BRANCH  55  56
ATOM     56  SD  MET A   2       3.032  -6.283  28.771  0.00  0.00    -0.164 S 
ATOM     57  CE  MET A   2       3.731  -6.761  30.372  0.00  0.00    +0.084 C 
ENDBRANCH  55  56
ENDBRANCH  54  55
ENDBRANCH  43  54
ENDBRANCH  39  43
ENDBRANCH  38  40
BRANCH  38  58
ATOM     58  CB  LEU A   3       4.813   0.226  26.649  0.00  0.00    +0.034 C 
BRANCH  58  59
ATOM     59  CG  LEU A   3       5.063  -0.339  28.062  0.00  0.00    -0.015 C 
ATOM     60  CD2 LEU A   3       3.762  -0.715  28.775  0.00  0.00    +0.007 C 
ATOM     61  CD1 LEU A   3       5.822   0.693  28.903  0.00  0.00    +0.007 C 
ENDBRANCH  58  59
ENDBRANCH  38  58
ENDBRANCH  34  38
ENDBRANCH   1  36
BRANCH   1  62
ATOM     62  CB  GLN A   4       9.286  -2.804  24.165  0.00  0.00    +0.041 C 
BRANCH  62  63
ATOM     63  CG  GLN A   4       9.273  -3.245  25.628  0.00  0.00    +0.098 C 
BRANCH  63  64
ATOM     64  CD  GLN A   4       9.116  -4.740  25.817  0.00  0.00    +0.211 C 
ATOM     65  OE1 GLN A   4       8.098  -5.242  26.280  0.00  0.00    -0.276 OA
ATOM     66  NE2 GLN A   4      10.200  -5.515  25.537  0.00  0.00    -0.329 N 
ATOM     67 HE21 GLN A   4      10.073  -6.516  25.631  0.00  0.00    +0.145 HD
ATOM     68 HE22 GLN A   4      11.000  -5.192  25.014  0.00  0.00    +0.145 HD
ENDBRANCH  63  64
ENDBRANCH  62  63
ENDBRANCH   1  62
TORSDOF 28
ENDMDL
MODEL 2
REMARK VINA RESULT:      -5.9      2.869      8.856
REMARK  Name = PMLQSADA-mmff94.pdb
REMARK  33 active torsions:
REMARK  status: ('A' for Active; 'I' for Inactive)
REMARK    1  A    between atoms: _2  and  _3
REMARK    2  A    between atoms: _15  and  _16
REMARK    3  A    between atoms: _16  and  _17
REMARK    4  A    between atoms: _16  and  _19
REMARK    5  A    between atoms: _19  and  _20
REMARK    6  A    between atoms: _20  and  _21
REMARK    7  A    between atoms: _21  and  _22
REMARK    8  A    between atoms: _32  and  _33
REMARK    9  A    between atoms: _33  and  _34
REMARK   10  A    between atoms: _33  and  _36
REMARK   11  A    between atoms: _36  and  _37
REMARK   12  A    between atoms: _37  and  _38
REMARK   13  A    between atoms: _37  and  _39
REMARK   14  A    between atoms: _51  and  _52
REMARK   15  A    between atoms: _52  and  _53
REMARK   16  A    between atoms: _52  and  _55
REMARK   17  A    between atoms: _55  and  _56
REMARK   18  A    between atoms: _56  and  _57
REMARK   19  A    between atoms: _68  and  _69
REMARK   20  A    between atoms: _69  and  _70
REMARK   21  A    between atoms: _69  and  _72
REMARK   22  A    between atoms: _72  and  _73
REMARK   23  A    between atoms: _79  and  _80
REMARK   24  A    between atoms: _80  and  _81
REMARK   25  A    between atoms: _80  and  _83
REMARK   26  A    between atoms: _89  and  _90
REMARK   27  A    between atoms: _90  and  _91
REMARK   28  A    between atoms: _90  and  _93
REMARK   29  A    between atoms: _93  and  _94
REMARK   30  A    between atoms: _94  and  _95
REMARK   31  A    between atoms: _101  and  _102
REMARK   32  A    between atoms: _102  and  _103
REMARK   33  A    between atoms: _102  and  _105
REMARK                            x       y       z     vdW  Elec       q    Type
REMARK                         _______ _______ _______ _____ _____    ______ ____
ROOT
ATOM      1  CA  GLN A   4       9.566  -0.431  24.004  0.00  0.00    +0.159 C 
ENDROOT
BRANCH   1   2
ATOM      2  C   GLN A   4       9.835  -1.933  23.772  0.00  0.00    +0.234 C 
ATOM      3  N   SER A   5       9.311  -2.789  24.704  0.00  0.00    -0.301 N 
ATOM      4  H   SER A   5       8.739  -2.449  25.477  0.00  0.00    +0.150 HD
ATOM      5  O   GLN A   4      10.466  -2.337  22.794  0.00  0.00    -0.274 OA
BRANCH   3   6
ATOM      6  CA  SER A   5       9.353  -4.249  24.542  0.00  0.00    +0.184 C 
BRANCH   6   7
ATOM      7  C   SER A   5       7.982  -4.699  24.005  0.00  0.00    +0.236 C 
ATOM      8  O   SER A   5       7.201  -5.349  24.705  0.00  0.00    -0.274 OA
ATOM      9  N   ALA A   6       7.671  -4.294  22.728  0.00  0.00    -0.303 N 
ATOM     10  H   ALA A   6       8.341  -3.783  22.160  0.00  0.00    +0.149 HD
BRANCH   9  11
ATOM     11  CA  ALA A   6       6.411  -4.655  22.087  0.00  0.00    +0.156 C 
ATOM     12  CB  ALA A   6       6.274  -6.169  21.954  0.00  0.00    +0.038 C 
BRANCH  11  13
ATOM     13  C   ALA A   6       5.244  -4.075  22.917  0.00  0.00    +0.234 C 
ATOM     14  N   ASP A   7       4.460  -5.007  23.552  0.00  0.00    -0.302 N 
ATOM     15  H   ASP A   7       4.644  -6.006  23.462  0.00  0.00    +0.150 HD
ATOM     16  O   ALA A   6       5.009  -2.866  23.005  0.00  0.00    -0.274 OA
BRANCH  14  17
ATOM     17  CA  ASP A   7       3.385  -4.621  24.466  0.00  0.00    +0.165 C 
BRANCH  17  18
ATOM     18  C   ASP A   7       4.000  -4.400  25.858  0.00  0.00    +0.234 C 
ATOM     19  O   ASP A   7       4.175  -3.268  26.309  0.00  0.00    -0.274 OA
ATOM     20  N   ALA A   8       4.336  -5.542  26.542  0.00  0.00    -0.305 N 
ATOM     21  H   ALA A   8       4.275  -6.462  26.096  0.00  0.00    +0.149 HD
BRANCH  20  22
ATOM     22  CA  ALA A   8       4.968  -5.506  27.854  0.00  0.00    +0.133 C 
ATOM     23  CB  ALA A   8       4.751  -6.789  28.646  0.00  0.00    +0.035 C 
BRANCH  22  24
ATOM     24  C   ALA A   8       6.465  -5.292  27.677  0.00  0.00    +0.245 C 
ATOM     25  O   ALA A   8       7.312  -6.136  27.956  0.00  0.00    -0.299 OA
ENDBRANCH  22  24
ENDBRANCH  20  22
ENDBRANCH  17  18
BRANCH  17  26
ATOM     26  CB  ASP A   7       2.303  -5.689  24.533  0.00  0.00    +0.089 C 
BRANCH  26  27
ATOM     27  CG  ASP A   7       2.611  -6.702  23.474  0.00  0.00    +0.025 C 
ATOM     28  OD1 ASP A   7       2.246  -6.581  22.315  0.00  0.00    -0.851 OA
BRANCH  27  29
ATOM     29  OD2 ASP A   7       3.412  -7.701  23.898  0.00  0.00    -0.526 OA
ATOM     30  HD2 ASP A   7       3.904  -7.501  24.729  0.00  0.00    +0.290 HD
ENDBRANCH  27  29
ENDBRANCH  26  27
ENDBRANCH  17  26
ENDBRANCH  14  17
ENDBRANCH  11  13
ENDBRANCH   9  11
ENDBRANCH   6   7
BRANCH   6  31
ATOM     31  CB  SER A   5       9.709  -4.962  25.851  0.00  0.00    +0.187 C 
BRANCH  31  32
ATOM     32  OG  SER A   5       9.548  -6.376  25.741  0.00  0.00    -0.393 OA
ATOM     33  H   SER A   5      10.033  -6.772  26.487  0.00  0.00    +0.209 HD
ENDBRANCH  31  32
ENDBRANCH   6  31
ENDBRANCH   3   6
ENDBRANCH   1   2
BRANCH   1  36
ATOM     34  C   LEU A   3       8.612   0.584  21.936  0.00  0.00    +0.234 C 
ATOM     35  O   LEU A   3       9.720   0.907  21.506  0.00  0.00    -0.274 OA
ATOM     36  N   GLN A   4       8.446  -0.076  23.129  0.00  0.00    -0.302 N 
ATOM     37  H   GLN A   4       7.513  -0.296  23.472  0.00  0.00    +0.150 HD
BRANCH  34  38
ATOM     38  CA  LEU A   3       7.311   0.863  21.149  0.00  0.00    +0.159 C 
BRANCH  38  40
ATOM     39  C   MET A   2       6.157   2.541  22.593  0.00  0.00    +0.234 C 
ATOM     40  N   LEU A   3       6.904   2.226  21.486  0.00  0.00    -0.302 N 
ATOM     41  H   LEU A   3       7.320   2.965  20.924  0.00  0.00    +0.150 HD
ATOM     42  O   MET A   2       5.721   1.695  23.375  0.00  0.00    -0.274 OA
BRANCH  39  43
ATOM     43  CA  MET A   2       5.936   4.048  22.827  0.00  0.00    +0.160 C 
BRANCH  43  46
ATOM     44  C   PRO A   1       4.407   4.585  24.710  0.00  0.00    +0.231 C 
ATOM     45  O   PRO A   1       3.460   4.814  23.957  0.00  0.00    -0.274 OA
ATOM     46  N   MET A   2       5.647   4.217  24.248  0.00  0.00    -0.303 N 
ATOM     47  H   MET A   2       6.402   4.011  24.896  0.00  0.00    +0.149 HD
BRANCH  44  53
ATOM     48  N   PRO A   1       2.961   4.168  26.670  0.00  0.00    -0.306 NA
ATOM     49  H   PRO A   1       2.530   3.747  25.838  0.00  0.00    +0.123 HD
ATOM     50  CD  PRO A   1       3.219   3.090  27.632  0.00  0.00    +0.081 C 
ATOM     51  CG  PRO A   1       4.598   2.570  27.287  0.00  0.00    +0.017 C 
ATOM     52  CB  PRO A   1       5.347   3.838  26.922  0.00  0.00    +0.029 C 
ATOM     53  CA  PRO A   1       4.286   4.693  26.242  0.00  0.00    +0.140 C 
ENDBRANCH  44  53
ENDBRANCH  43  46
BRANCH  43  54
ATOM     54  CB  MET A   2       7.197   4.804  22.382  0.00  0.00    +0.042 C 
BRANCH  54  55
ATOM     55  CG  MET A   2       7.804   5.659  23.493  0.00  0.00    +0.071 C 
BRANCH  55  56
ATOM     56  SD  MET A   2       9.544   5.191  23.769  0.00  0.00    -0.164 S 
ATOM     57  CE  MET A   2       9.272   3.479  24.292  0.00  0.00    +0.084 C 
ENDBRANCH  55  56
ENDBRANCH  54  55
ENDBRANCH  43  54
ENDBRANCH  39  43
ENDBRANCH  38  40
BRANCH  38  58
ATOM     58  CB  LEU A   3       7.587   0.687  19.644  0.00  0.00    +0.034 C 
BRANCH  58  59
ATOM     59  CG  LEU A   3       6.631  -0.261  18.894  0.00  0.00    -0.015 C 
ATOM     60  CD2 LEU A   3       5.583   0.497  18.077  0.00  0.00    +0.007 C 
ATOM     61  CD1 LEU A   3       5.925  -1.181  19.895  0.00  0.00    +0.007 C 
ENDBRANCH  58  59
ENDBRANCH  38  58
ENDBRANCH  34  38
ENDBRANCH   1  36
BRANCH   1  62
ATOM     62  CB  GLN A   4       9.213  -0.136  25.470  0.00  0.00    +0.041 C 
BRANCH  62  63
ATOM     63  CG  GLN A   4       7.764   0.302  25.679  0.00  0.00    +0.098 C 
BRANCH  63  64
ATOM     64  CD  GLN A   4       6.803  -0.846  25.908  0.00  0.00    +0.211 C 
ATOM     65  OE1 GLN A   4       7.116  -1.852  26.537  0.00  0.00    -0.276 OA
ATOM     66  NE2 GLN A   4       5.587  -0.764  25.302  0.00  0.00    -0.329 N 
ATOM     67 HE21 GLN A   4       4.938  -1.518  25.492  0.00  0.00    +0.145 HD
ATOM     68 HE22 GLN A   4       5.213   0.087  24.908  0.00  0.00    +0.145 HD
ENDBRANCH  63  64
ENDBRANCH  62  63
ENDBRANCH   1  62
TORSDOF 28
ENDMDL
MODEL 3
REMARK VINA RESULT:      -5.9      2.427      8.422
REMARK  Name = PMLQSADA-mmff94.pdb
REMARK  33 active torsions:
REMARK  status: ('A' for Active; 'I' for Inactive)
REMARK    1  A    between atoms: _2  and  _3
REMARK    2  A    between atoms: _15  and  _16
REMARK    3  A    between atoms: _16  and  _17
REMARK    4  A    between atoms: _16  and  _19
REMARK    5  A    between atoms: _19  and  _20
REMARK    6  A    between atoms: _20  and  _21
REMARK    7  A    between atoms: _21  and  _22
REMARK    8  A    between atoms: _32  and  _33
REMARK    9  A    between atoms: _33  and  _34
REMARK   10  A    between atoms: _33  and  _36
REMARK   11  A    between atoms: _36  and  _37
REMARK   12  A    between atoms: _37  and  _38
REMARK   13  A    between atoms: _37  and  _39
REMARK   14  A    between atoms: _51  and  _52
REMARK   15  A    between atoms: _52  and  _53
REMARK   16  A    between atoms: _52  and  _55
REMARK   17  A    between atoms: _55  and  _56
REMARK   18  A    between atoms: _56  and  _57
REMARK   19  A    between atoms: _68  and  _69
REMARK   20  A    between atoms: _69  and  _70
REMARK   21  A    between atoms: _69  and  _72
REMARK   22  A    between atoms: _72  and  _73
REMARK   23  A    between atoms: _79  and  _80
REMARK   24  A    between atoms: _80  and  _81
REMARK   25  A    between atoms: _80  and  _83
REMARK   26  A    between atoms: _89  and  _90
REMARK   27  A    between atoms: _90  and  _91
REMARK   28  A    between atoms: _90  and  _93
REMARK   29  A    between atoms: _93  and  _94
REMARK   30  A    between atoms: _94  and  _95
REMARK   31  A    between atoms: _101  and  _102
REMARK   32  A    between atoms: _102  and  _103
REMARK   33  A    between atoms: _102  and  _105
REMARK                            x       y       z     vdW  Elec       q    Type
REMARK                         _______ _______ _______ _____ _____    ______ ____
ROOT
ATOM      1  CA  GLN A   4       9.751  -0.934  23.653  0.00  0.00    +0.159 C 
ENDROOT
BRANCH   1   2
ATOM      2  C   GLN A   4       9.702  -2.424  24.050  0.00  0.00    +0.234 C 
ATOM      3  N   SER A   5       8.714  -2.779  24.931  0.00  0.00    -0.301 N 
ATOM      4  H   SER A   5       8.028  -2.102  25.263  0.00  0.00    +0.150 HD
ATOM      5  O   GLN A   4      10.491  -3.247  23.585  0.00  0.00    -0.274 OA
BRANCH   3   6
ATOM      6  CA  SER A   5       8.446  -4.179  25.287  0.00  0.00    +0.184 C 
BRANCH   6   7
ATOM      7  C   SER A   5       7.067  -4.232  25.970  0.00  0.00    +0.236 C 
ATOM      8  O   SER A   5       6.206  -3.378  25.745  0.00  0.00    -0.274 OA
ATOM      9  N   ALA A   6       6.846  -5.306  26.801  0.00  0.00    -0.303 N 
ATOM     10  H   ALA A   6       7.578  -5.982  26.994  0.00  0.00    +0.149 HD
BRANCH   9  11
ATOM     11  CA  ALA A   6       5.589  -5.480  27.522  0.00  0.00    +0.156 C 
ATOM     12  CB  ALA A   6       5.175  -4.191  28.228  0.00  0.00    +0.038 C 
BRANCH  11  13
ATOM     13  C   ALA A   6       4.497  -5.926  26.524  0.00  0.00    +0.234 C 
ATOM     14  N   ASP A   7       3.726  -4.912  26.010  0.00  0.00    -0.302 N 
ATOM     15  H   ASP A   7       3.872  -3.942  26.288  0.00  0.00    +0.150 HD
ATOM     16  O   ALA A   6       4.309  -7.104  26.208  0.00  0.00    -0.274 OA
BRANCH  14  17
ATOM     17  CA  ASP A   7       2.726  -5.151  24.970  0.00  0.00    +0.165 C 
BRANCH  17  18
ATOM     18  C   ASP A   7       3.453  -5.215  23.617  0.00  0.00    +0.234 C 
ATOM     19  O   ASP A   7       3.060  -5.953  22.713  0.00  0.00    -0.274 OA
ATOM     20  N   ALA A   8       4.554  -4.403  23.500  0.00  0.00    -0.305 N 
ATOM     21  H   ALA A   8       4.913  -3.882  24.304  0.00  0.00    +0.149 HD
BRANCH  20  22
ATOM     22  CA  ALA A   8       5.378  -4.377  22.299  0.00  0.00    +0.133 C 
ATOM     23  CB  ALA A   8       5.998  -3.010  22.041  0.00  0.00    +0.035 C 
BRANCH  22  24
ATOM     24  C   ALA A   8       6.497  -5.399  22.444  0.00  0.00    +0.245 C 
ATOM     25  O   ALA A   8       6.922  -6.081  21.516  0.00  0.00    -0.299 OA
ENDBRANCH  22  24
ENDBRANCH  20  22
ENDBRANCH  17  18
BRANCH  17  26
ATOM     26  CB  ASP A   7       1.672  -4.052  24.950  0.00  0.00    +0.089 C 
BRANCH  26  27
ATOM     27  CG  ASP A   7       2.101  -3.008  25.933  0.00  0.00    +0.025 C 
ATOM     28  OD1 ASP A   7       1.594  -2.889  27.038  0.00  0.00    -0.851 OA
BRANCH  27  29
ATOM     29  OD2 ASP A   7       3.162  -2.282  25.523  0.00  0.00    -0.526 OA
ATOM     30  HD2 ASP A   7       3.891  -2.816  25.131  0.00  0.00    +0.290 HD
ENDBRANCH  27  29
ENDBRANCH  26  27
ENDBRANCH  17  26
ENDBRANCH  14  17
ENDBRANCH  11  13
ENDBRANCH   9  11
ENDBRANCH   6   7
BRANCH   6  31
ATOM     31  CB  SER A   5       9.543  -4.764  26.183  0.00  0.00    +0.187 C 
BRANCH  31  32
ATOM     32  OG  SER A   5      10.438  -5.595  25.444  0.00  0.00    -0.393 OA
ATOM     33  H   SER A   5       9.991  -6.452  25.324  0.00  0.00    +0.209 HD
ENDBRANCH  31  32
ENDBRANCH   6  31
ENDBRANCH   3   6
ENDBRANCH   1   2
BRANCH   1  36
ATOM     34  C   LEU A   3       8.418   0.103  21.817  0.00  0.00    +0.234 C 
ATOM     35  O   LEU A   3       9.415   0.581  21.276  0.00  0.00    -0.274 OA
ATOM     36  N   GLN A   4       8.489  -0.653  22.963  0.00  0.00    -0.302 N 
ATOM     37  H   GLN A   4       7.641  -1.002  23.403  0.00  0.00    +0.150 HD
BRANCH  34  38
ATOM     38  CA  LEU A   3       6.999   0.281  21.231  0.00  0.00    +0.159 C 
BRANCH  38  40
ATOM     39  C   MET A   2       6.306   2.316  22.502  0.00  0.00    +0.234 C 
ATOM     40  N   LEU A   3       6.210   0.970  22.251  0.00  0.00    -0.302 N 
ATOM     41  H   LEU A   3       5.472   0.421  22.686  0.00  0.00    +0.150 HD
ATOM     42  O   MET A   2       7.103   3.054  21.924  0.00  0.00    -0.274 OA
BRANCH  39  43
ATOM     43  CA  MET A   2       5.303   2.861  23.536  0.00  0.00    +0.160 C 
BRANCH  43  46
ATOM     44  C   PRO A   1       3.611   4.221  22.326  0.00  0.00    +0.231 C 
ATOM     45  O   PRO A   1       4.278   5.251  22.425  0.00  0.00    -0.274 OA
ATOM     46  N   MET A   2       4.027   3.019  22.845  0.00  0.00    -0.303 N 
ATOM     47  H   MET A   2       3.464   2.180  22.726  0.00  0.00    +0.149 HD
BRANCH  44  53
ATOM     48  N   PRO A   1       2.345   4.928  20.325  0.00  0.00    -0.306 NA
ATOM     49  H   PRO A   1       3.339   5.151  20.192  0.00  0.00    +0.123 HD
ATOM     50  CD  PRO A   1       1.952   3.994  19.264  0.00  0.00    +0.081 C 
ATOM     51  CG  PRO A   1       2.246   2.616  19.816  0.00  0.00    +0.017 C 
ATOM     52  CB  PRO A   1       1.855   2.755  21.275  0.00  0.00    +0.029 C 
ATOM     53  CA  PRO A   1       2.246   4.187  21.612  0.00  0.00    +0.140 C 
ENDBRANCH  44  53
ENDBRANCH  43  46
BRANCH  43  54
ATOM     54  CB  MET A   2       5.225   1.876  24.712  0.00  0.00    +0.042 C 
BRANCH  54  55
ATOM     55  CG  MET A   2       5.311   2.563  26.074  0.00  0.00    +0.071 C 
BRANCH  55  56
ATOM     56  SD  MET A   2       6.260   1.533  27.240  0.00  0.00    -0.164 S 
ATOM     57  CE  MET A   2       6.452   0.068  26.193  0.00  0.00    +0.084 C 
ENDBRANCH  55  56
ENDBRANCH  54  55
ENDBRANCH  43  54
ENDBRANCH  39  43
ENDBRANCH  38  40
BRANCH  38  58
ATOM     58  CB  LEU A   3       7.094   1.083  19.920  0.00  0.00    +0.034 C 
BRANCH  58  59
ATOM     59  CG  LEU A   3       6.671   0.332  18.642  0.00  0.00    -0.015 C 
ATOM     60  CD2 LEU A   3       5.932   1.237  17.654  0.00  0.00    +0.007 C 
ATOM     61  CD1 LEU A   3       5.773  -0.853  19.013  0.00  0.00    +0.007 C 
ENDBRANCH  58  59
ENDBRANCH  38  58
ENDBRANCH  34  38
ENDBRANCH   1  36
BRANCH   1  62
ATOM     62  CB  GLN A   4       9.902  -0.022  24.880  0.00  0.00    +0.041 C 
BRANCH  62  63
ATOM     63  CG  GLN A   4      10.650   1.279  24.593  0.00  0.00    +0.098 C 
BRANCH  63  64
ATOM     64  CD  GLN A   4       9.746   2.440  24.233  0.00  0.00    +0.211 C 
ATOM     65  OE1 GLN A   4       8.792   2.773  24.930  0.00  0.00    -0.276 OA
ATOM     66  NE2 GLN A   4       9.974   3.054  23.040  0.00  0.00    -0.329 N 
ATOM     67 HE21 GLN A   4       9.389   3.852  22.826  0.00  0.00    +0.145 HD
ATOM     68 HE22 GLN A   4      10.820   2.936  22.503  0.00  0.00    +0.145 HD
ENDBRANCH  63  64
ENDBRANCH  62  63
ENDBRANCH   1  62
TORSDOF 28
ENDMDL
MODEL 4
REMARK VINA RESULT:      -5.9      2.073      5.738
REMARK  Name = PMLQSADA-mmff94.pdb
REMARK  33 active torsions:
REMARK  status: ('A' for Active; 'I' for Inactive)
REMARK    1  A    between atoms: _2  and  _3
REMARK    2  A    between atoms: _15  and  _16
REMARK    3  A    between atoms: _16  and  _17
REMARK    4  A    between atoms: _16  and  _19
REMARK    5  A    between atoms: _19  and  _20
REMARK    6  A    between atoms: _20  and  _21
REMARK    7  A    between atoms: _21  and  _22
REMARK    8  A    between atoms: _32  and  _33
REMARK    9  A    between atoms: _33  and  _34
REMARK   10  A    between atoms: _33  and  _36
REMARK   11  A    between atoms: _36  and  _37
REMARK   12  A    between atoms: _37  and  _38
REMARK   13  A    between atoms: _37  and  _39
REMARK   14  A    between atoms: _51  and  _52
REMARK   15  A    between atoms: _52  and  _53
REMARK   16  A    between atoms: _52  and  _55
REMARK   17  A    between atoms: _55  and  _56
REMARK   18  A    between atoms: _56  and  _57
REMARK   19  A    between atoms: _68  and  _69
REMARK   20  A    between atoms: _69  and  _70
REMARK   21  A    between atoms: _69  and  _72
REMARK   22  A    between atoms: _72  and  _73
REMARK   23  A    between atoms: _79  and  _80
REMARK   24  A    between atoms: _80  and  _81
REMARK   25  A    between atoms: _80  and  _83
REMARK   26  A    between atoms: _89  and  _90
REMARK   27  A    between atoms: _90  and  _91
REMARK   28  A    between atoms: _90  and  _93
REMARK   29  A    between atoms: _93  and  _94
REMARK   30  A    between atoms: _94  and  _95
REMARK   31  A    between atoms: _101  and  _102
REMARK   32  A    between atoms: _102  and  _103
REMARK   33  A    between atoms: _102  and  _105
REMARK                            x       y       z     vdW  Elec       q    Type
REMARK                         _______ _______ _______ _____ _____    ______ ____
ROOT
ATOM      1  CA  GLN A   4       8.966   0.018  24.255  0.00  0.00    +0.159 C 
ENDROOT
BRANCH   1   2
ATOM      2  C   GLN A   4       9.456  -1.427  24.023  0.00  0.00    +0.234 C 
ATOM      3  N   SER A   5       8.837  -2.398  24.764  0.00  0.00    -0.301 N 
ATOM      4  H   SER A   5       8.067  -2.176  25.396  0.00  0.00    +0.150 HD
ATOM      5  O   GLN A   4      10.337  -1.690  23.203  0.00  0.00    -0.274 OA
BRANCH   3   6
ATOM      6  CA  SER A   5       9.087  -3.830  24.549  0.00  0.00    +0.184 C 
BRANCH   6   7
ATOM      7  C   SER A   5       8.038  -4.342  23.544  0.00  0.00    +0.236 C 
ATOM      8  O   SER A   5       8.067  -5.499  23.120  0.00  0.00    -0.274 OA
ATOM      9  N   ALA A   6       7.052  -3.449  23.194  0.00  0.00    -0.303 N 
ATOM     10  H   ALA A   6       7.063  -2.492  23.535  0.00  0.00    +0.149 HD
BRANCH   9  11
ATOM     11  CA  ALA A   6       5.998  -3.793  22.245  0.00  0.00    +0.156 C 
ATOM     12  CB  ALA A   6       4.635  -3.845  22.931  0.00  0.00    +0.038 C 
BRANCH  11  13
ATOM     13  C   ALA A   6       5.992  -2.754  21.103  0.00  0.00    +0.234 C 
ATOM     14  N   ASP A   7       6.490  -1.518  21.437  0.00  0.00    -0.302 N 
ATOM     15  H   ASP A   7       6.824  -1.317  22.379  0.00  0.00    +0.150 HD
ATOM     16  O   ALA A   6       5.566  -2.993  19.970  0.00  0.00    -0.274 OA
BRANCH  14  17
ATOM     17  CA  ASP A   7       6.659  -0.457  20.444  0.00  0.00    +0.165 C 
BRANCH  17  18
ATOM     18  C   ASP A   7       7.176   0.796  21.168  0.00  0.00    +0.234 C 
ATOM     19  O   ASP A   7       8.326   1.204  21.003  0.00  0.00    -0.274 OA
ATOM     20  N   ALA A   8       6.272   1.410  22.000  0.00  0.00    -0.305 N 
ATOM     21  H   ALA A   8       5.361   0.986  22.195  0.00  0.00    +0.149 HD
BRANCH  20  22
ATOM     22  CA  ALA A   8       6.617   2.583  22.793  0.00  0.00    +0.133 C 
ATOM     23  CB  ALA A   8       6.638   3.864  21.969  0.00  0.00    +0.035 C 
BRANCH  22  24
ATOM     24  C   ALA A   8       5.596   2.742  23.911  0.00  0.00    +0.245 C 
ATOM     25  O   ALA A   8       4.407   2.459  23.794  0.00  0.00    -0.299 OA
ENDBRANCH  22  24
ENDBRANCH  20  22
ENDBRANCH  17  18
BRANCH  17  26
ATOM     26  CB  ASP A   7       5.349  -0.151  19.730  0.00  0.00    +0.089 C 
BRANCH  26  27
ATOM     27  CG  ASP A   7       5.680   0.146  18.301  0.00  0.00    +0.025 C 
ATOM     28  OD1 ASP A   7       5.797   1.283  17.869  0.00  0.00    -0.851 OA
BRANCH  27  29
ATOM     29  OD2 ASP A   7       5.935  -0.956  17.565  0.00  0.00    -0.526 OA
ATOM     30  HD2 ASP A   7       5.148  -1.527  17.404  0.00  0.00    +0.290 HD
ENDBRANCH  27  29
ENDBRANCH  26  27
ENDBRANCH  17  26
ENDBRANCH  14  17
ENDBRANCH  11  13
ENDBRANCH   9  11
ENDBRANCH   6   7
BRANCH   6  31
ATOM     31  CB  SER A   5       9.047  -4.623  25.860  0.00  0.00    +0.187 C 
BRANCH  31  32
ATOM     32  OG  SER A   5      10.126  -5.554  25.944  0.00  0.00    -0.393 OA
ATOM     33  H   SER A   5      10.816  -5.240  25.331  0.00  0.00    +0.209 HD
ENDBRANCH  31  32
ENDBRANCH   6  31
ENDBRANCH   3   6
ENDBRANCH   1   2
BRANCH   1  36
ATOM     34  C   LEU A   3       6.689  -0.375  25.193  0.00  0.00    +0.234 C 
ATOM     35  O   LEU A   3       6.214  -0.658  24.093  0.00  0.00    -0.274 OA
ATOM     36  N   GLN A   4       8.012  -0.047  25.366  0.00  0.00    -0.302 N 
ATOM     37  H   GLN A   4       8.363   0.217  26.283  0.00  0.00    +0.150 HD
BRANCH  34  38
ATOM     38  CA  LEU A   3       5.842  -0.399  26.486  0.00  0.00    +0.159 C 
BRANCH  38  40
ATOM     39  C   MET A   2       3.798  -1.835  26.513  0.00  0.00    +0.234 C 
ATOM     40  N   LEU A   3       5.164  -1.695  26.516  0.00  0.00    -0.302 N 
ATOM     41  H   LEU A   3       5.761  -2.511  26.401  0.00  0.00    +0.150 HD
ATOM     42  O   MET A   2       3.023  -0.880  26.536  0.00  0.00    -0.274 OA
BRANCH  39  43
ATOM     43  CA  MET A   2       3.291  -3.287  26.429  0.00  0.00    +0.160 C 
BRANCH  43  46
ATOM     44  C   PRO A   1       4.655  -5.319  26.860  0.00  0.00    +0.231 C 
ATOM     45  O   PRO A   1       4.351  -5.828  25.781  0.00  0.00    -0.274 OA
ATOM     46  N   MET A   2       4.179  -4.094  27.261  0.00  0.00    -0.303 N 
ATOM     47  H   MET A   2       4.468  -3.690  28.148  0.00  0.00    +0.149 HD
BRANCH  44  53
ATOM     48  N   PRO A   1       6.002  -5.039  28.913  0.00  0.00    -0.306 NA
ATOM     49  H   PRO A   1       5.436  -4.196  28.764  0.00  0.00    +0.123 HD
ATOM     50  CD  PRO A   1       5.611  -5.617  30.204  0.00  0.00    +0.081 C 
ATOM     51  CG  PRO A   1       4.461  -6.550  29.891  0.00  0.00    +0.017 C 
ATOM     52  CB  PRO A   1       4.879  -7.157  28.565  0.00  0.00    +0.029 C 
ATOM     53  CA  PRO A   1       5.597  -6.013  27.863  0.00  0.00    +0.140 C 
ENDBRANCH  44  53
ENDBRANCH  43  46
BRANCH  43  54
ATOM     54  CB  MET A   2       1.831  -3.326  26.906  0.00  0.00    +0.042 C 
BRANCH  54  55
ATOM     55  CG  MET A   2       1.682  -3.849  28.333  0.00  0.00    +0.071 C 
BRANCH  55  56
ATOM     56  SD  MET A   2       1.548  -2.457  29.502  0.00  0.00    -0.164 S 
ATOM     57  CE  MET A   2       3.138  -2.669  30.342  0.00  0.00    +0.084 C 
ENDBRANCH  55  56
ENDBRANCH  54  55
ENDBRANCH  43  54
ENDBRANCH  39  43
ENDBRANCH  38  40
BRANCH  38  58
ATOM     58  CB  LEU A   3       6.768  -0.193  27.698  0.00  0.00    +0.034 C 
BRANCH  58  59
ATOM     59  CG  LEU A   3       6.391   0.967  28.641  0.00  0.00    -0.015 C 
ATOM     60  CD2 LEU A   3       7.523   1.321  29.607  0.00  0.00    +0.007 C 
ATOM     61  CD1 LEU A   3       5.139   0.595  29.442  0.00  0.00    +0.007 C 
ENDBRANCH  58  59
ENDBRANCH  38  58
ENDBRANCH  34  38
ENDBRANCH   1  36
BRANCH   1  62
ATOM     62  CB  GLN A   4      10.126   0.964  24.603  0.00  0.00    +0.041 C 
BRANCH  62  63
ATOM     63  CG  GLN A   4       9.838   2.432  24.295  0.00  0.00    +0.098 C 
BRANCH  63  64
ATOM     64  CD  GLN A   4      10.730   3.021  23.222  0.00  0.00    +0.211 C 
ATOM     65  OE1 GLN A   4      11.514   3.937  23.447  0.00  0.00    -0.276 OA
ATOM     66  NE2 GLN A   4      10.561   2.555  21.954  0.00  0.00    -0.329 N 
ATOM     67 HE21 GLN A   4      11.188   2.927  21.251  0.00  0.00    +0.145 HD
ATOM     68 HE22 GLN A   4      10.056   1.710  21.731  0.00  0.00    +0.145 HD
ENDBRANCH  63  64
ENDBRANCH  62  63
ENDBRANCH   1  62
TORSDOF 28
ENDMDL
MODEL 5
REMARK VINA RESULT:      -5.8      2.014      5.461
REMARK  Name = PMLQSADA-mmff94.pdb
REMARK  33 active torsions:
REMARK  status: ('A' for Active; 'I' for Inactive)
REMARK    1  A    between atoms: _2  and  _3
REMARK    2  A    between atoms: _15  and  _16
REMARK    3  A    between atoms: _16  and  _17
REMARK    4  A    between atoms: _16  and  _19
REMARK    5  A    between atoms: _19  and  _20
REMARK    6  A    between atoms: _20  and  _21
REMARK    7  A    between atoms: _21  and  _22
REMARK    8  A    between atoms: _32  and  _33
REMARK    9  A    between atoms: _33  and  _34
REMARK   10  A    between atoms: _33  and  _36
REMARK   11  A    between atoms: _36  and  _37
REMARK   12  A    between atoms: _37  and  _38
REMARK   13  A    between atoms: _37  and  _39
REMARK   14  A    between atoms: _51  and  _52
REMARK   15  A    between atoms: _52  and  _53
REMARK   16  A    between atoms: _52  and  _55
REMARK   17  A    between atoms: _55  and  _56
REMARK   18  A    between atoms: _56  and  _57
REMARK   19  A    between atoms: _68  and  _69
REMARK   20  A    between atoms: _69  and  _70
REMARK   21  A    between atoms: _69  and  _72
REMARK   22  A    between atoms: _72  and  _73
REMARK   23  A    between atoms: _79  and  _80
REMARK   24  A    between atoms: _80  and  _81
REMARK   25  A    between atoms: _80  and  _83
REMARK   26  A    between atoms: _89  and  _90
REMARK   27  A    between atoms: _90  and  _91
REMARK   28  A    between atoms: _90  and  _93
REMARK   29  A    between atoms: _93  and  _94
REMARK   30  A    between atoms: _94  and  _95
REMARK   31  A    between atoms: _101  and  _102
REMARK   32  A    between atoms: _102  and  _103
REMARK   33  A    between atoms: _102  and  _105
REMARK                            x       y       z     vdW  Elec       q    Type
REMARK                         _______ _______ _______ _____ _____    ______ ____
ROOT
ATOM      1  CA  GLN A   4       9.013   0.162  24.255  0.00  0.00    +0.159 C 
ENDROOT
BRANCH   1   2
ATOM      2  C   GLN A   4       9.547  -1.266  24.013  0.00  0.00    +0.234 C 
ATOM      3  N   SER A   5       8.980  -2.256  24.772  0.00  0.00    -0.301 N 
ATOM      4  H   SER A   5       8.219  -2.059  25.421  0.00  0.00    +0.150 HD
ATOM      5  O   GLN A   4      10.416  -1.501  23.173  0.00  0.00    -0.274 OA
BRANCH   3   6
ATOM      6  CA  SER A   5       9.274  -3.679  24.553  0.00  0.00    +0.184 C 
BRANCH   6   7
ATOM      7  C   SER A   5       8.212  -4.232  23.585  0.00  0.00    +0.236 C 
ATOM      8  O   SER A   5       8.094  -5.444  23.386  0.00  0.00    -0.274 OA
ATOM      9  N   ALA A   6       7.384  -3.301  23.002  0.00  0.00    -0.303 N 
ATOM     10  H   ALA A   6       7.516  -2.307  23.159  0.00  0.00    +0.149 HD
BRANCH   9  11
ATOM     11  CA  ALA A   6       6.338  -3.681  22.057  0.00  0.00    +0.156 C 
ATOM     12  CB  ALA A   6       5.019  -3.956  22.776  0.00  0.00    +0.038 C 
BRANCH  11  13
ATOM     13  C   ALA A   6       6.165  -2.550  21.020  0.00  0.00    +0.234 C 
ATOM     14  N   ASP A   7       6.752  -1.354  21.357  0.00  0.00    -0.302 N 
ATOM     15  H   ASP A   7       7.252  -1.239  22.238  0.00  0.00    +0.150 HD
ATOM     16  O   ALA A   6       5.539  -2.687  19.965  0.00  0.00    -0.274 OA
BRANCH  14  17
ATOM     17  CA  ASP A   7       6.778  -0.218  20.437  0.00  0.00    +0.165 C 
BRANCH  17  18
ATOM     18  C   ASP A   7       7.240   1.020  21.221  0.00  0.00    +0.234 C 
ATOM     19  O   ASP A   7       8.388   1.454  21.117  0.00  0.00    -0.274 OA
ATOM     20  N   ALA A   8       6.292   1.590  22.035  0.00  0.00    -0.305 N 
ATOM     21  H   ALA A   8       5.382   1.144  22.179  0.00  0.00    +0.149 HD
BRANCH  20  22
ATOM     22  CA  ALA A   8       6.581   2.742  22.878  0.00  0.00    +0.133 C 
ATOM     23  CB  ALA A   8       6.967   3.978  22.074  0.00  0.00    +0.035 C 
BRANCH  22  24
ATOM     24  C   ALA A   8       5.349   3.069  23.709  0.00  0.00    +0.245 C 
ATOM     25  O   ALA A   8       4.306   2.421  23.668  0.00  0.00    -0.299 OA
ENDBRANCH  22  24
ENDBRANCH  20  22
ENDBRANCH  17  18
BRANCH  17  26
ATOM     26  CB  ASP A   7       5.406   0.030  19.822  0.00  0.00    +0.089 C 
BRANCH  26  27
ATOM     27  CG  ASP A   7       5.623   0.414  18.392  0.00  0.00    +0.025 C 
ATOM     28  OD1 ASP A   7       5.958  -0.388  17.533  0.00  0.00    -0.851 OA
BRANCH  27  29
ATOM     29  OD2 ASP A   7       5.314   1.700  18.124  0.00  0.00    -0.526 OA
ATOM     30  HD2 ASP A   7       5.810   2.357  18.666  0.00  0.00    +0.290 HD
ENDBRANCH  27  29
ENDBRANCH  26  27
ENDBRANCH  17  26
ENDBRANCH  14  17
ENDBRANCH  11  13
ENDBRANCH   9  11
ENDBRANCH   6   7
BRANCH   6  31
ATOM     31  CB  SER A   5       9.306  -4.467  25.867  0.00  0.00    +0.187 C 
BRANCH  31  32
ATOM     32  OG  SER A   5       9.616  -5.843  25.647  0.00  0.00    -0.393 OA
ATOM     33  H   SER A   5       8.986  -6.169  24.979  0.00  0.00    +0.209 HD
ENDBRANCH  31  32
ENDBRANCH   6  31
ENDBRANCH   3   6
ENDBRANCH   1   2
BRANCH   1  36
ATOM     34  C   LEU A   3       6.783  -0.291  25.278  0.00  0.00    +0.234 C 
ATOM     35  O   LEU A   3       6.275  -0.584  24.196  0.00  0.00    -0.274 OA
ATOM     36  N   GLN A   4       8.104   0.070  25.401  0.00  0.00    -0.302 N 
ATOM     37  H   GLN A   4       8.483   0.341  26.305  0.00  0.00    +0.150 HD
BRANCH  34  38
ATOM     38  CA  LEU A   3       5.987  -0.340  26.602  0.00  0.00    +0.159 C 
BRANCH  38  40
ATOM     39  C   MET A   2       4.514  -2.356  26.540  0.00  0.00    +0.234 C 
ATOM     40  N   LEU A   3       5.702  -1.750  26.865  0.00  0.00    -0.302 N 
ATOM     41  H   LEU A   3       6.489  -2.309  27.186  0.00  0.00    +0.150 HD
ATOM     42  O   MET A   2       3.564  -1.752  26.042  0.00  0.00    -0.274 OA
BRANCH  39  43
ATOM     43  CA  MET A   2       4.463  -3.874  26.796  0.00  0.00    +0.160 C 
BRANCH  43  46
ATOM     44  C   PRO A   1       2.378  -5.120  26.273  0.00  0.00    +0.231 C 
ATOM     45  O   PRO A   1       2.136  -5.336  27.461  0.00  0.00    -0.274 OA
ATOM     46  N   MET A   2       3.490  -4.428  25.859  0.00  0.00    -0.303 N 
ATOM     47  H   MET A   2       3.650  -4.246  24.872  0.00  0.00    +0.149 HD
BRANCH  44  53
ATOM     48  N   PRO A   1       1.967  -5.109  23.836  0.00  0.00    -0.306 NA
ATOM     49  H   PRO A   1       2.880  -4.679  24.027  0.00  0.00    +0.123 HD
ATOM     50  CD  PRO A   1       2.195  -6.284  22.988  0.00  0.00    +0.081 C 
ATOM     51  CG  PRO A   1       2.438  -7.429  23.948  0.00  0.00    +0.017 C 
ATOM     52  CB  PRO A   1       1.461  -7.132  25.070  0.00  0.00    +0.029 C 
ATOM     53  CA  PRO A   1       1.455  -5.611  25.141  0.00  0.00    +0.140 C 
ENDBRANCH  44  53
ENDBRANCH  43  46
BRANCH  43  54
ATOM     54  CB  MET A   2       5.873  -4.453  26.602  0.00  0.00    +0.042 C 
BRANCH  54  55
ATOM     55  CG  MET A   2       6.380  -5.214  27.825  0.00  0.00    +0.071 C 
BRANCH  55  56
ATOM     56  SD  MET A   2       5.410  -6.738  28.066  0.00  0.00    -0.164 S 
ATOM     57  CE  MET A   2       4.720  -6.351  29.695  0.00  0.00    +0.084 C 
ENDBRANCH  55  56
ENDBRANCH  54  55
ENDBRANCH  43  54
ENDBRANCH  39  43
ENDBRANCH  38  40
BRANCH  38  58
ATOM     58  CB  LEU A   3       6.826   0.309  27.717  0.00  0.00    +0.034 C 
BRANCH  58  59
ATOM     59  CG  LEU A   3       6.125   1.418  28.526  0.00  0.00    -0.015 C 
ATOM     60  CD2 LEU A   3       7.068   2.573  28.867  0.00  0.00    +0.007 C 
ATOM     61  CD1 LEU A   3       5.555   0.831  29.822  0.00  0.00    +0.007 C 
ENDBRANCH  58  59
ENDBRANCH  38  58
ENDBRANCH  34  38
ENDBRANCH   1  36
BRANCH   1  62
ATOM     62  CB  GLN A   4      10.149   1.152  24.553  0.00  0.00    +0.041 C 
BRANCH  62  63
ATOM     63  CG  GLN A   4       9.716   2.617  24.516  0.00  0.00    +0.098 C 
BRANCH  63  64
ATOM     64  CD  GLN A   4      10.427   3.440  23.462  0.00  0.00    +0.211 C 
ATOM     65  OE1 GLN A   4      10.658   4.636  23.606  0.00  0.00    -0.276 OA
ATOM     66  NE2 GLN A   4      10.723   2.818  22.288  0.00  0.00    -0.329 N 
ATOM     67 HE21 GLN A   4      11.232   3.366  21.605  0.00  0.00    +0.145 HD
ATOM     68 HE22 GLN A   4      10.704   1.817  22.164  0.00  0.00    +0.145 HD
ENDBRANCH  63  64
ENDBRANCH  62  63
ENDBRANCH   1  62
TORSDOF 28
ENDMDL
MODEL 6
REMARK VINA RESULT:      -5.7      2.711      8.583
REMARK  Name = PMLQSADA-mmff94.pdb
REMARK  33 active torsions:
REMARK  status: ('A' for Active; 'I' for Inactive)
REMARK    1  A    between atoms: _2  and  _3
REMARK    2  A    between atoms: _15  and  _16
REMARK    3  A    between atoms: _16  and  _17
REMARK    4  A    between atoms: _16  and  _19
REMARK    5  A    between atoms: _19  and  _20
REMARK    6  A    between atoms: _20  and  _21
REMARK    7  A    between atoms: _21  and  _22
REMARK    8  A    between atoms: _32  and  _33
REMARK    9  A    between atoms: _33  and  _34
REMARK   10  A    between atoms: _33  and  _36
REMARK   11  A    between atoms: _36  and  _37
REMARK   12  A    between atoms: _37  and  _38
REMARK   13  A    between atoms: _37  and  _39
REMARK   14  A    between atoms: _51  and  _52
REMARK   15  A    between atoms: _52  and  _53
REMARK   16  A    between atoms: _52  and  _55
REMARK   17  A    between atoms: _55  and  _56
REMARK   18  A    between atoms: _56  and  _57
REMARK   19  A    between atoms: _68  and  _69
REMARK   20  A    between atoms: _69  and  _70
REMARK   21  A    between atoms: _69  and  _72
REMARK   22  A    between atoms: _72  and  _73
REMARK   23  A    between atoms: _79  and  _80
REMARK   24  A    between atoms: _80  and  _81
REMARK   25  A    between atoms: _80  and  _83
REMARK   26  A    between atoms: _89  and  _90
REMARK   27  A    between atoms: _90  and  _91
REMARK   28  A    between atoms: _90  and  _93
REMARK   29  A    between atoms: _93  and  _94
REMARK   30  A    between atoms: _94  and  _95
REMARK   31  A    between atoms: _101  and  _102
REMARK   32  A    between atoms: _102  and  _103
REMARK   33  A    between atoms: _102  and  _105
REMARK                            x       y       z     vdW  Elec       q    Type
REMARK                         _______ _______ _______ _____ _____    ______ ____
ROOT
ATOM      1  CA  GLN A   4       9.598  -1.374  23.826  0.00  0.00    +0.159 C 
ENDROOT
BRANCH   1   2
ATOM      2  C   GLN A   4       9.409  -2.846  24.249  0.00  0.00    +0.234 C 
ATOM      3  N   SER A   5       8.160  -3.188  24.695  0.00  0.00    -0.301 N 
ATOM      4  H   SER A   5       7.394  -2.515  24.700  0.00  0.00    +0.150 HD
ATOM      5  O   GLN A   4      10.324  -3.667  24.169  0.00  0.00    -0.274 OA
BRANCH   3   6
ATOM      6  CA  SER A   5       7.785  -4.577  24.991  0.00  0.00    +0.184 C 
BRANCH   6   7
ATOM      7  C   SER A   5       6.295  -4.744  24.640  0.00  0.00    +0.236 C 
ATOM      8  O   SER A   5       5.753  -4.035  23.789  0.00  0.00    -0.274 OA
ATOM      9  N   ALA A   6       5.630  -5.754  25.296  0.00  0.00    -0.303 N 
ATOM     10  H   ALA A   6       6.089  -6.308  26.013  0.00  0.00    +0.149 HD
BRANCH   9  11
ATOM     11  CA  ALA A   6       4.213  -6.022  25.070  0.00  0.00    +0.156 C 
ATOM     12  CB  ALA A   6       3.991  -7.457  24.600  0.00  0.00    +0.038 C 
BRANCH  11  13
ATOM     13  C   ALA A   6       3.438  -5.753  26.378  0.00  0.00    +0.234 C 
ATOM     14  N   ASP A   7       4.205  -5.323  27.433  0.00  0.00    -0.302 N 
ATOM     15  H   ASP A   7       5.213  -5.206  27.343  0.00  0.00    +0.150 HD
ATOM     16  O   ALA A   6       2.219  -5.917  26.491  0.00  0.00    -0.274 OA
BRANCH  14  17
ATOM     17  CA  ASP A   7       3.611  -4.917  28.707  0.00  0.00    +0.165 C 
BRANCH  17  18
ATOM     18  C   ASP A   7       3.964  -3.440  28.947  0.00  0.00    +0.234 C 
ATOM     19  O   ASP A   7       3.761  -2.902  30.036  0.00  0.00    -0.274 OA
ATOM     20  N   ALA A   8       4.506  -2.781  27.872  0.00  0.00    -0.305 N 
ATOM     21  H   ALA A   8       4.563  -3.228  26.953  0.00  0.00    +0.149 HD
BRANCH  20  22
ATOM     22  CA  ALA A   8       4.855  -1.367  27.921  0.00  0.00    +0.133 C 
ATOM     23  CB  ALA A   8       6.043  -1.024  27.030  0.00  0.00    +0.035 C 
BRANCH  22  24
ATOM     24  C   ALA A   8       3.656  -0.546  27.469  0.00  0.00    +0.245 C 
ATOM     25  O   ALA A   8       2.796  -0.961  26.696  0.00  0.00    -0.299 OA
ENDBRANCH  22  24
ENDBRANCH  20  22
ENDBRANCH  17  18
BRANCH  17  26
ATOM     26  CB  ASP A   7       4.124  -5.774  29.857  0.00  0.00    +0.089 C 
BRANCH  26  27
ATOM     27  CG  ASP A   7       5.429  -6.364  29.424  0.00  0.00    +0.025 C 
ATOM     28  OD1 ASP A   7       6.507  -5.843  29.670  0.00  0.00    -0.851 OA
BRANCH  27  29
ATOM     29  OD2 ASP A   7       5.308  -7.570  28.831  0.00  0.00    -0.526 OA
ATOM     30  HD2 ASP A   7       5.108  -8.308  29.452  0.00  0.00    +0.290 HD
ENDBRANCH  27  29
ENDBRANCH  26  27
ENDBRANCH  17  26
ENDBRANCH  14  17
ENDBRANCH  11  13
ENDBRANCH   9  11
ENDBRANCH   6   7
BRANCH   6  31
ATOM     31  CB  SER A   5       8.066  -4.950  26.451  0.00  0.00    +0.187 C 
BRANCH  31  32
ATOM     32  OG  SER A   5       7.178  -4.279  27.345  0.00  0.00    -0.393 OA
ATOM     33  H   SER A   5       7.278  -4.709  28.214  0.00  0.00    +0.209 HD
ENDBRANCH  31  32
ENDBRANCH   6  31
ENDBRANCH   3   6
ENDBRANCH   1   2
BRANCH   1  36
ATOM     34  C   LEU A   3       8.483  -0.260  21.892  0.00  0.00    +0.234 C 
ATOM     35  O   LEU A   3       9.547   0.163  21.440  0.00  0.00    -0.274 OA
ATOM     36  N   GLN A   4       8.416  -1.021  23.035  0.00  0.00    -0.302 N 
ATOM     37  H   GLN A   4       7.516  -1.325  23.401  0.00  0.00    +0.150 HD
BRANCH  34  38
ATOM     38  CA  LEU A   3       7.130  -0.002  21.191  0.00  0.00    +0.159 C 
BRANCH  38  40
ATOM     39  C   MET A   2       6.474   2.143  22.288  0.00  0.00    +0.234 C 
ATOM     40  N   LEU A   3       6.323   0.790  22.119  0.00  0.00    -0.302 N 
ATOM     41  H   LEU A   3       5.537   0.306  22.547  0.00  0.00    +0.150 HD
ATOM     42  O   MET A   2       7.336   2.803  21.708  0.00  0.00    -0.274 OA
BRANCH  39  43
ATOM     43  CA  MET A   2       5.446   2.803  23.226  0.00  0.00    +0.160 C 
BRANCH  43  46
ATOM     44  C   PRO A   1       3.544   4.124  22.324  0.00  0.00    +0.231 C 
ATOM     45  O   PRO A   1       3.947   5.169  22.834  0.00  0.00    -0.274 OA
ATOM     46  N   MET A   2       4.202   2.927  22.471  0.00  0.00    -0.303 N 
ATOM     47  H   MET A   2       3.857   2.086  22.017  0.00  0.00    +0.149 HD
BRANCH  44  53
ATOM     48  N   PRO A   1       2.459   4.843  20.223  0.00  0.00    -0.306 NA
ATOM     49  H   PRO A   1       3.452   5.104  20.197  0.00  0.00    +0.123 HD
ATOM     50  CD  PRO A   1       2.210   3.927  19.105  0.00  0.00    +0.081 C 
ATOM     51  CG  PRO A   1       2.499   2.544  19.650  0.00  0.00    +0.017 C 
ATOM     52  CB  PRO A   1       1.959   2.627  21.065  0.00  0.00    +0.029 C 
ATOM     53  CA  PRO A   1       2.260   4.063  21.475  0.00  0.00    +0.140 C 
ENDBRANCH  44  53
ENDBRANCH  43  46
BRANCH  43  54
ATOM     54  CB  MET A   2       5.295   1.930  24.481  0.00  0.00    +0.042 C 
BRANCH  54  55
ATOM     55  CG  MET A   2       5.653   2.668  25.770  0.00  0.00    +0.071 C 
BRANCH  55  56
ATOM     56  SD  MET A   2       4.322   3.828  26.221  0.00  0.00    -0.164 S 
ATOM     57  CE  MET A   2       2.910   2.740  25.902  0.00  0.00    +0.084 C 
ENDBRANCH  55  56
ENDBRANCH  54  55
ENDBRANCH  43  54
ENDBRANCH  39  43
ENDBRANCH  38  40
BRANCH  38  58
ATOM     58  CB  LEU A   3       7.385   0.731  19.861  0.00  0.00    +0.034 C 
BRANCH  58  59
ATOM     59  CG  LEU A   3       6.624   0.184  18.637  0.00  0.00    -0.015 C 
ATOM     60  CD2 LEU A   3       5.708   1.234  18.007  0.00  0.00    +0.007 C 
ATOM     61  CD1 LEU A   3       5.791  -1.034  19.049  0.00  0.00    +0.007 C 
ENDBRANCH  58  59
ENDBRANCH  38  58
ENDBRANCH  34  38
ENDBRANCH   1  36
BRANCH   1  62
ATOM     62  CB  GLN A   4       9.723  -0.443  25.042  0.00  0.00    +0.041 C 
BRANCH  62  63
ATOM     63  CG  GLN A   4       8.777   0.756  25.001  0.00  0.00    +0.098 C 
BRANCH  63  64
ATOM     64  CD  GLN A   4       9.439   2.045  24.558  0.00  0.00    +0.211 C 
ATOM     65  OE1 GLN A   4       8.923   3.144  24.733  0.00  0.00    -0.276 OA
ATOM     66  NE2 GLN A   4      10.604   1.934  23.863  0.00  0.00    -0.329 N 
ATOM     67 HE21 GLN A   4      11.058   2.801  23.604  0.00  0.00    +0.145 HD
ATOM     68 HE22 GLN A   4      11.153   1.088  23.821  0.00  0.00    +0.145 HD
ENDBRANCH  63  64
ENDBRANCH  62  63
ENDBRANCH   1  62
TORSDOF 28
ENDMDL
MODEL 7
REMARK VINA RESULT:      -5.7      1.896      6.132
REMARK  Name = PMLQSADA-mmff94.pdb
REMARK  33 active torsions:
REMARK  status: ('A' for Active; 'I' for Inactive)
REMARK    1  A    between atoms: _2  and  _3
REMARK    2  A    between atoms: _15  and  _16
REMARK    3  A    between atoms: _16  and  _17
REMARK    4  A    between atoms: _16  and  _19
REMARK    5  A    between atoms: _19  and  _20
REMARK    6  A    between atoms: _20  and  _21
REMARK    7  A    between atoms: _21  and  _22
REMARK    8  A    between atoms: _32  and  _33
REMARK    9  A    between atoms: _33  and  _34
REMARK   10  A    between atoms: _33  and  _36
REMARK   11  A    between atoms: _36  and  _37
REMARK   12  A    between atoms: _37  and  _38
REMARK   13  A    between atoms: _37  and  _39
REMARK   14  A    between atoms: _51  and  _52
REMARK   15  A    between atoms: _52  and  _53
REMARK   16  A    between atoms: _52  and  _55
REMARK   17  A    between atoms: _55  and  _56
REMARK   18  A    between atoms: _56  and  _57
REMARK   19  A    between atoms: _68  and  _69
REMARK   20  A    between atoms: _69  and  _70
REMARK   21  A    between atoms: _69  and  _72
REMARK   22  A    between atoms: _72  and  _73
REMARK   23  A    between atoms: _79  and  _80
REMARK   24  A    between atoms: _80  and  _81
REMARK   25  A    between atoms: _80  and  _83
REMARK   26  A    between atoms: _89  and  _90
REMARK   27  A    between atoms: _90  and  _91
REMARK   28  A    between atoms: _90  and  _93
REMARK   29  A    between atoms: _93  and  _94
REMARK   30  A    between atoms: _94  and  _95
REMARK   31  A    between atoms: _101  and  _102
REMARK   32  A    between atoms: _102  and  _103
REMARK   33  A    between atoms: _102  and  _105
REMARK                            x       y       z     vdW  Elec       q    Type
REMARK                         _______ _______ _______ _____ _____    ______ ____
ROOT
ATOM      1  CA  GLN A   4       4.500   2.780  23.571  0.00  0.00    +0.159 C 
ENDROOT
BRANCH   1   2
ATOM      2  C   GLN A   4       5.742   3.604  23.169  0.00  0.00    +0.234 C 
ATOM      3  N   SER A   5       6.956   3.063  23.504  0.00  0.00    -0.301 N 
ATOM      4  H   SER A   5       7.026   2.149  23.951  0.00  0.00    +0.150 HD
ATOM      5  O   GLN A   4       5.646   4.672  22.565  0.00  0.00    -0.274 OA
BRANCH   3   6
ATOM      6  CA  SER A   5       8.227   3.651  23.060  0.00  0.00    +0.184 C 
BRANCH   6   7
ATOM      7  C   SER A   5       9.326   2.590  23.253  0.00  0.00    +0.236 C 
ATOM      8  O   SER A   5      10.514   2.907  23.344  0.00  0.00    -0.274 OA
ATOM      9  N   ALA A   6       8.895   1.288  23.363  0.00  0.00    -0.303 N 
ATOM     10  H   ALA A   6       7.914   1.048  23.257  0.00  0.00    +0.149 HD
BRANCH   9  11
ATOM     11  CA  ALA A   6       9.826   0.178  23.540  0.00  0.00    +0.156 C 
ATOM     12  CB  ALA A   6      10.083  -0.095  25.019  0.00  0.00    +0.038 C 
BRANCH  11  13
ATOM     13  C   ALA A   6       9.246  -1.076  22.849  0.00  0.00    +0.234 C 
ATOM     14  N   ASP A   7       7.892  -1.252  22.999  0.00  0.00    -0.302 N 
ATOM     15  H   ASP A   7       7.329  -0.596  23.540  0.00  0.00    +0.150 HD
ATOM     16  O   ALA A   6       9.935  -1.880  22.213  0.00  0.00    -0.274 OA
BRANCH  14  17
ATOM     17  CA  ASP A   7       7.170  -2.324  22.315  0.00  0.00    +0.165 C 
BRANCH  17  18
ATOM     18  C   ASP A   7       6.399  -1.705  21.137  0.00  0.00    +0.234 C 
ATOM     19  O   ASP A   7       5.600  -2.367  20.475  0.00  0.00    -0.274 OA
ATOM     20  N   ALA A   8       6.671  -0.383  20.885  0.00  0.00    -0.305 N 
ATOM     21  H   ALA A   8       7.417   0.108  21.387  0.00  0.00    +0.149 HD
BRANCH  20  22
ATOM     22  CA  ALA A   8       6.059   0.341  19.780  0.00  0.00    +0.133 C 
ATOM     23  CB  ALA A   8       5.720   1.783  20.136  0.00  0.00    +0.035 C 
BRANCH  22  24
ATOM     24  C   ALA A   8       7.019   0.346  18.598  0.00  0.00    +0.245 C 
ATOM     25  O   ALA A   8       6.819   0.969  17.559  0.00  0.00    -0.299 OA
ENDBRANCH  22  24
ENDBRANCH  20  22
ENDBRANCH  17  18
BRANCH  17  26
ATOM     26  CB  ASP A   7       6.208  -3.035  23.257  0.00  0.00    +0.089 C 
BRANCH  26  27
ATOM     27  CG  ASP A   7       6.074  -4.445  22.775  0.00  0.00    +0.025 C 
ATOM     28  OD1 ASP A   7       6.972  -5.267  22.869  0.00  0.00    -0.851 OA
BRANCH  27  29
ATOM     29  OD2 ASP A   7       4.838  -4.747  22.324  0.00  0.00    -0.526 OA
ATOM     30  HD2 ASP A   7       4.795  -5.564  21.775  0.00  0.00    +0.290 HD
ENDBRANCH  27  29
ENDBRANCH  26  27
ENDBRANCH  17  26
ENDBRANCH  14  17
ENDBRANCH  11  13
ENDBRANCH   9  11
ENDBRANCH   6   7
BRANCH   6  31
ATOM     31  CB  SER A   5       8.554   4.946  23.812  0.00  0.00    +0.187 C 
BRANCH  31  32
ATOM     32  OG  SER A   5       9.498   5.745  23.098  0.00  0.00    -0.393 OA
ATOM     33  H   SER A   5      10.383   5.459  23.388  0.00  0.00    +0.209 HD
ENDBRANCH  31  32
ENDBRANCH   6  31
ENDBRANCH   3   6
ENDBRANCH   1   2
BRANCH   1  36
ATOM     34  C   LEU A   3       5.447   1.067  25.117  0.00  0.00    +0.234 C 
ATOM     35  O   LEU A   3       5.882   0.380  24.192  0.00  0.00    -0.274 OA
ATOM     36  N   GLN A   4       4.777   2.248  24.908  0.00  0.00    -0.302 N 
ATOM     37  H   GLN A   4       4.399   2.773  25.694  0.00  0.00    +0.150 HD
BRANCH  34  38
ATOM     38  CA  LEU A   3       5.651   0.677  26.599  0.00  0.00    +0.159 C 
BRANCH  38  40
ATOM     39  C   MET A   2       4.333  -1.443  26.694  0.00  0.00    +0.234 C 
ATOM     40  N   LEU A   3       5.535  -0.779  26.666  0.00  0.00    -0.302 N 
ATOM     41  H   LEU A   3       6.402  -1.299  26.554  0.00  0.00    +0.150 HD
ATOM     42  O   MET A   2       3.246  -0.866  26.715  0.00  0.00    -0.274 OA
BRANCH  39  43
ATOM     43  CA  MET A   2       4.434  -2.979  26.647  0.00  0.00    +0.160 C 
BRANCH  43  46
ATOM     44  C   PRO A   1       6.365  -4.542  26.582  0.00  0.00    +0.231 C 
ATOM     45  O   PRO A   1       5.699  -5.440  26.065  0.00  0.00    -0.274 OA
ATOM     46  N   MET A   2       5.830  -3.319  26.907  0.00  0.00    -0.303 N 
ATOM     47  H   MET A   2       6.411  -2.590  27.310  0.00  0.00    +0.149 HD
BRANCH  44  53
ATOM     48  N   PRO A   1       8.411  -5.854  26.136  0.00  0.00    -0.306 NA
ATOM     49  H   PRO A   1       7.674  -6.144  25.481  0.00  0.00    +0.123 HD
ATOM     50  CD  PRO A   1       9.531  -5.332  25.345  0.00  0.00    +0.081 C 
ATOM     51  CG  PRO A   1       9.236  -3.859  25.158  0.00  0.00    +0.017 C 
ATOM     52  CB  PRO A   1       8.641  -3.470  26.498  0.00  0.00    +0.029 C 
ATOM     53  CA  PRO A   1       7.860  -4.710  26.912  0.00  0.00    +0.140 C 
ENDBRANCH  44  53
ENDBRANCH  43  46
BRANCH  43  54
ATOM     54  CB  MET A   2       3.474  -3.567  27.692  0.00  0.00    +0.042 C 
BRANCH  54  55
ATOM     55  CG  MET A   2       2.247  -4.232  27.070  0.00  0.00    +0.071 C 
BRANCH  55  56
ATOM     56  SD  MET A   2       2.370  -6.044  27.219  0.00  0.00    -0.164 S 
ATOM     57  CE  MET A   2       3.352  -6.113  28.739  0.00  0.00    +0.084 C 
ENDBRANCH  55  56
ENDBRANCH  54  55
ENDBRANCH  43  54
ENDBRANCH  39  43
ENDBRANCH  38  40
BRANCH  38  58
ATOM     58  CB  LEU A   3       7.029   1.179  27.065  0.00  0.00    +0.034 C 
BRANCH  58  59
ATOM     59  CG  LEU A   3       7.023   2.113  28.292  0.00  0.00    -0.015 C 
ATOM     60  CD2 LEU A   3       6.004   1.678  29.347  0.00  0.00    +0.007 C 
ATOM     61  CD1 LEU A   3       6.711   3.546  27.848  0.00  0.00    +0.007 C 
ENDBRANCH  58  59
ENDBRANCH  38  58
ENDBRANCH  34  38
ENDBRANCH   1  36
BRANCH   1  62
ATOM     62  CB  GLN A   4       3.228   3.642  23.592  0.00  0.00    +0.041 C 
BRANCH  62  63
ATOM     63  CG  GLN A   4       2.172   3.207  22.577  0.00  0.00    +0.098 C 
BRANCH  63  64
ATOM     64  CD  GLN A   4       2.486   3.614  21.152  0.00  0.00    +0.211 C 
ATOM     65  OE1 GLN A   4       2.410   2.830  20.212  0.00  0.00    -0.276 OA
ATOM     66  NE2 GLN A   4       2.953   4.877  20.959  0.00  0.00    -0.329 N 
ATOM     67 HE21 GLN A   4       3.124   5.152  19.999  0.00  0.00    +0.145 HD
ATOM     68 HE22 GLN A   4       2.892   5.609  21.651  0.00  0.00    +0.145 HD
ENDBRANCH  63  64
ENDBRANCH  62  63
ENDBRANCH   1  62
TORSDOF 28
ENDMDL
MODEL 8
REMARK VINA RESULT:      -5.7      1.982      3.265
REMARK  Name = PMLQSADA-mmff94.pdb
REMARK  33 active torsions:
REMARK  status: ('A' for Active; 'I' for Inactive)
REMARK    1  A    between atoms: _2  and  _3
REMARK    2  A    between atoms: _15  and  _16
REMARK    3  A    between atoms: _16  and  _17
REMARK    4  A    between atoms: _16  and  _19
REMARK    5  A    between atoms: _19  and  _20
REMARK    6  A    between atoms: _20  and  _21
REMARK    7  A    between atoms: _21  and  _22
REMARK    8  A    between atoms: _32  and  _33
REMARK    9  A    between atoms: _33  and  _34
REMARK   10  A    between atoms: _33  and  _36
REMARK   11  A    between atoms: _36  and  _37
REMARK   12  A    between atoms: _37  and  _38
REMARK   13  A    between atoms: _37  and  _39
REMARK   14  A    between atoms: _51  and  _52
REMARK   15  A    between atoms: _52  and  _53
REMARK   16  A    between atoms: _52  and  _55
REMARK   17  A    between atoms: _55  and  _56
REMARK   18  A    between atoms: _56  and  _57
REMARK   19  A    between atoms: _68  and  _69
REMARK   20  A    between atoms: _69  and  _70
REMARK   21  A    between atoms: _69  and  _72
REMARK   22  A    between atoms: _72  and  _73
REMARK   23  A    between atoms: _79  and  _80
REMARK   24  A    between atoms: _80  and  _81
REMARK   25  A    between atoms: _80  and  _83
REMARK   26  A    between atoms: _89  and  _90
REMARK   27  A    between atoms: _90  and  _91
REMARK   28  A    between atoms: _90  and  _93
REMARK   29  A    between atoms: _93  and  _94
REMARK   30  A    between atoms: _94  and  _95
REMARK   31  A    between atoms: _101  and  _102
REMARK   32  A    between atoms: _102  and  _103
REMARK   33  A    between atoms: _102  and  _105
REMARK                            x       y       z     vdW  Elec       q    Type
REMARK                         _______ _______ _______ _____ _____    ______ ____
ROOT
ATOM      1  CA  GLN A   4       8.587  -2.911  25.976  0.00  0.00    +0.159 C 
ENDROOT
BRANCH   1   2
ATOM      2  C   GLN A   4       8.461  -3.165  24.459  0.00  0.00    +0.234 C 
ATOM      3  N   SER A   5       7.346  -2.647  23.854  0.00  0.00    -0.301 N 
ATOM      4  H   SER A   5       6.669  -2.089  24.373  0.00  0.00    +0.150 HD
ATOM      5  O   GLN A   4       9.323  -3.778  23.829  0.00  0.00    -0.274 OA
BRANCH   3   6
ATOM      6  CA  SER A   5       7.159  -2.675  22.397  0.00  0.00    +0.184 C 
BRANCH   6   7
ATOM      7  C   SER A   5       7.672  -1.337  21.834  0.00  0.00    +0.236 C 
ATOM      8  O   SER A   5       8.603  -0.730  22.369  0.00  0.00    -0.274 OA
ATOM      9  N   ALA A   6       7.063  -0.894  20.683  0.00  0.00    -0.303 N 
ATOM     10  H   ALA A   6       6.280  -1.395  20.275  0.00  0.00    +0.149 HD
BRANCH   9  11
ATOM     11  CA  ALA A   6       7.440   0.363  20.043  0.00  0.00    +0.156 C 
ATOM     12  CB  ALA A   6       7.275   0.281  18.527  0.00  0.00    +0.038 C 
BRANCH  11  13
ATOM     13  C   ALA A   6       6.572   1.501  20.622  0.00  0.00    +0.234 C 
ATOM     14  N   ASP A   7       7.062   2.085  21.764  0.00  0.00    -0.302 N 
ATOM     15  H   ASP A   7       7.932   1.769  22.191  0.00  0.00    +0.150 HD
ATOM     16  O   ALA A   6       5.506   1.866  20.117  0.00  0.00    -0.274 OA
BRANCH  14  17
ATOM     17  CA  ASP A   7       6.420   3.249  22.375  0.00  0.00    +0.165 C 
BRANCH  17  18
ATOM     18  C   ASP A   7       7.477   4.358  22.513  0.00  0.00    +0.234 C 
ATOM     19  O   ASP A   7       7.330   5.454  21.971  0.00  0.00    -0.274 OA
ATOM     20  N   ALA A   8       8.576   4.033  23.269  0.00  0.00    -0.305 N 
ATOM     21  H   ALA A   8       8.715   3.080  23.616  0.00  0.00    +0.149 HD
BRANCH  20  22
ATOM     22  CA  ALA A   8       9.687   4.955  23.462  0.00  0.00    +0.133 C 
ATOM     23  CB  ALA A   8       9.578   5.745  24.760  0.00  0.00    +0.035 C 
BRANCH  22  24
ATOM     24  C   ALA A   8      10.988   4.165  23.482  0.00  0.00    +0.245 C 
ATOM     25  O   ALA A   8      12.101   4.684  23.478  0.00  0.00    -0.299 OA
ENDBRANCH  22  24
ENDBRANCH  20  22
ENDBRANCH  17  18
BRANCH  17  26
ATOM     26  CB  ASP A   7       5.834   2.908  23.738  0.00  0.00    +0.089 C 
BRANCH  26  27
ATOM     27  CG  ASP A   7       6.372   1.568  24.131  0.00  0.00    +0.025 C 
ATOM     28  OD1 ASP A   7       7.513   1.403  24.534  0.00  0.00    -0.851 OA
BRANCH  27  29
ATOM     29  OD2 ASP A   7       5.449   0.584  24.096  0.00  0.00    -0.526 OA
ATOM     30  HD2 ASP A   7       4.727   0.729  23.442  0.00  0.00    +0.290 HD
ENDBRANCH  27  29
ENDBRANCH  26  27
ENDBRANCH  17  26
ENDBRANCH  14  17
ENDBRANCH  11  13
ENDBRANCH   9  11
ENDBRANCH   6   7
BRANCH   6  31
ATOM     31  CB  SER A   5       5.697  -2.927  22.011  0.00  0.00    +0.187 C 
BRANCH  31  32
ATOM     32  OG  SER A   5       5.594  -3.625  20.770  0.00  0.00    -0.393 OA
ATOM     33  H   SER A   5       4.645  -3.784  20.616  0.00  0.00    +0.209 HD
ENDBRANCH  31  32
ENDBRANCH   6  31
ENDBRANCH   3   6
ENDBRANCH   1   2
BRANCH   1  36
ATOM     34  C   LEU A   3       7.485  -0.920  26.998  0.00  0.00    +0.234 C 
ATOM     35  O   LEU A   3       8.559  -0.385  27.272  0.00  0.00    -0.274 OA
ATOM     36  N   GLN A   4       7.405  -2.136  26.361  0.00  0.00    -0.302 N 
ATOM     37  H   GLN A   4       6.500  -2.566  26.182  0.00  0.00    +0.150 HD
BRANCH  34  38
ATOM     38  CA  LEU A   3       6.128  -0.250  27.314  0.00  0.00    +0.159 C 
BRANCH  38  40
ATOM     39  C   MET A   2       3.950  -1.451  27.087  0.00  0.00    +0.234 C 
ATOM     40  N   LEU A   3       5.198  -1.329  27.646  0.00  0.00    -0.302 N 
ATOM     41  H   LEU A   3       5.574  -2.078  28.223  0.00  0.00    +0.150 HD
ATOM     42  O   MET A   2       3.485  -0.634  26.293  0.00  0.00    -0.274 OA
BRANCH  39  43
ATOM     43  CA  MET A   2       3.177  -2.723  27.486  0.00  0.00    +0.160 C 
BRANCH  43  46
ATOM     44  C   PRO A   1       3.757  -3.792  25.319  0.00  0.00    +0.231 C 
ATOM     45  O   PRO A   1       4.960  -3.572  25.461  0.00  0.00    -0.274 OA
ATOM     46  N   MET A   2       2.820  -3.406  26.246  0.00  0.00    -0.303 N 
ATOM     47  H   MET A   2       1.836  -3.624  26.111  0.00  0.00    +0.149 HD
BRANCH  44  53
ATOM     48  N   PRO A   1       4.026  -5.719  23.795  0.00  0.00    -0.306 NA
ATOM     49  H   PRO A   1       4.680  -5.816  24.581  0.00  0.00    +0.123 HD
ATOM     50  CD  PRO A   1       3.127  -6.878  23.815  0.00  0.00    +0.081 C 
ATOM     51  CG  PRO A   1       1.976  -6.475  24.710  0.00  0.00    +0.017 C 
ATOM     52  CB  PRO A   1       1.778  -5.013  24.355  0.00  0.00    +0.029 C 
ATOM     53  CA  PRO A   1       3.193  -4.520  24.084  0.00  0.00    +0.140 C 
ENDBRANCH  44  53
ENDBRANCH  43  46
BRANCH  43  54
ATOM     54  CB  MET A   2       4.071  -3.576  28.398  0.00  0.00    +0.042 C 
BRANCH  54  55
ATOM     55  CG  MET A   2       3.329  -4.132  29.612  0.00  0.00    +0.071 C 
BRANCH  55  56
ATOM     56  SD  MET A   2       3.594  -5.930  29.743  0.00  0.00    -0.164 S 
ATOM     57  CE  MET A   2       2.466  -6.455  28.428  0.00  0.00    +0.084 C 
ENDBRANCH  55  56
ENDBRANCH  54  55
ENDBRANCH  43  54
ENDBRANCH  39  43
ENDBRANCH  38  40
BRANCH  38  58
ATOM     58  CB  LEU A   3       6.317   0.742  28.476  0.00  0.00    +0.034 C 
BRANCH  58  59
ATOM     59  CG  LEU A   3       5.851   2.186  28.207  0.00  0.00    -0.015 C 
ATOM     60  CD2 LEU A   3       4.622   2.240  27.297  0.00  0.00    +0.007 C 
ATOM     61  CD1 LEU A   3       6.991   2.986  27.568  0.00  0.00    +0.007 C 
ENDBRANCH  58  59
ENDBRANCH  38  58
ENDBRANCH  34  38
ENDBRANCH   1  36
BRANCH   1  62
ATOM     62  CB  GLN A   4       8.645  -4.225  26.770  0.00  0.00    +0.041 C 
BRANCH  62  63
ATOM     63  CG  GLN A   4       7.797  -5.346  26.171  0.00  0.00    +0.098 C 
BRANCH  63  64
ATOM     64  CD  GLN A   4       6.783  -5.929  27.133  0.00  0.00    +0.211 C 
ATOM     65  OE1 GLN A   4       7.002  -6.039  28.335  0.00  0.00    -0.276 OA
ATOM     66  NE2 GLN A   4       5.634  -6.422  26.595  0.00  0.00    -0.329 N 
ATOM     67 HE21 GLN A   4       4.946  -6.776  27.249  0.00  0.00    +0.145 HD
ATOM     68 HE22 GLN A   4       5.327  -6.226  25.653  0.00  0.00    +0.145 HD
ENDBRANCH  63  64
ENDBRANCH  62  63
ENDBRANCH   1  62
TORSDOF 28
ENDMDL
MODEL 9
REMARK VINA RESULT:      -5.6      2.079      5.408
REMARK  Name = PMLQSADA-mmff94.pdb
REMARK  33 active torsions:
REMARK  status: ('A' for Active; 'I' for Inactive)
REMARK    1  A    between atoms: _2  and  _3
REMARK    2  A    between atoms: _15  and  _16
REMARK    3  A    between atoms: _16  and  _17
REMARK    4  A    between atoms: _16  and  _19
REMARK    5  A    between atoms: _19  and  _20
REMARK    6  A    between atoms: _20  and  _21
REMARK    7  A    between atoms: _21  and  _22
REMARK    8  A    between atoms: _32  and  _33
REMARK    9  A    between atoms: _33  and  _34
REMARK   10  A    between atoms: _33  and  _36
REMARK   11  A    between atoms: _36  and  _37
REMARK   12  A    between atoms: _37  and  _38
REMARK   13  A    between atoms: _37  and  _39
REMARK   14  A    between atoms: _51  and  _52
REMARK   15  A    between atoms: _52  and  _53
REMARK   16  A    between atoms: _52  and  _55
REMARK   17  A    between atoms: _55  and  _56
REMARK   18  A    between atoms: _56  and  _57
REMARK   19  A    between atoms: _68  and  _69
REMARK   20  A    between atoms: _69  and  _70
REMARK   21  A    between atoms: _69  and  _72
REMARK   22  A    between atoms: _72  and  _73
REMARK   23  A    between atoms: _79  and  _80
REMARK   24  A    between atoms: _80  and  _81
REMARK   25  A    between atoms: _80  and  _83
REMARK   26  A    between atoms: _89  and  _90
REMARK   27  A    between atoms: _90  and  _91
REMARK   28  A    between atoms: _90  and  _93
REMARK   29  A    between atoms: _93  and  _94
REMARK   30  A    between atoms: _94  and  _95
REMARK   31  A    between atoms: _101  and  _102
REMARK   32  A    between atoms: _102  and  _103
REMARK   33  A    between atoms: _102  and  _105
REMARK                            x       y       z     vdW  Elec       q    Type
REMARK                         _______ _______ _______ _____ _____    ______ ____
ROOT
ATOM      1  CA  GLN A   4       4.111   2.706  26.416  0.00  0.00    +0.159 C 
ENDROOT
BRANCH   1   2
ATOM      2  C   GLN A   4       4.025   3.067  24.918  0.00  0.00    +0.234 C 
ATOM      3  N   SER A   5       4.993   3.916  24.449  0.00  0.00    -0.301 N 
ATOM      4  H   SER A   5       5.747   4.248  25.049  0.00  0.00    +0.150 HD
ATOM      5  O   GLN A   4       3.151   2.602  24.187  0.00  0.00    -0.274 OA
BRANCH   3   6
ATOM      6  CA  SER A   5       5.133   4.233  23.021  0.00  0.00    +0.184 C 
BRANCH   6   7
ATOM      7  C   SER A   5       6.637   4.240  22.689  0.00  0.00    +0.236 C 
ATOM      8  O   SER A   5       7.143   5.148  22.025  0.00  0.00    -0.274 OA
ATOM      9  N   ALA A   6       7.375   3.205  23.215  0.00  0.00    -0.303 N 
ATOM     10  H   ALA A   6       6.932   2.454  23.735  0.00  0.00    +0.149 HD
BRANCH   9  11
ATOM     11  CA  ALA A   6       8.809   3.078  22.975  0.00  0.00    +0.156 C 
ATOM     12  CB  ALA A   6       9.600   3.217  24.273  0.00  0.00    +0.038 C 
BRANCH  11  13
ATOM     13  C   ALA A   6       9.087   1.710  22.314  0.00  0.00    +0.234 C 
ATOM     14  N   ASP A   7       8.062   0.801  22.400  0.00  0.00    -0.302 N 
ATOM     15  H   ASP A   7       7.191   1.027  22.880  0.00  0.00    +0.150 HD
ATOM     16  O   ALA A   6      10.152   1.431  21.754  0.00  0.00    -0.274 OA
BRANCH  14  17
ATOM     17  CA  ASP A   7       8.120  -0.498  21.731  0.00  0.00    +0.165 C 
BRANCH  17  18
ATOM     18  C   ASP A   7       6.842  -0.659  20.891  0.00  0.00    +0.234 C 
ATOM     19  O   ASP A   7       6.242  -1.733  20.837  0.00  0.00    -0.274 OA
ATOM     20  N   ALA A   8       6.434   0.465  20.217  0.00  0.00    -0.305 N 
ATOM     21  H   ALA A   8       7.013   1.310  20.200  0.00  0.00    +0.149 HD
BRANCH  20  22
ATOM     22  CA  ALA A   8       5.269   0.469  19.343  0.00  0.00    +0.133 C 
ATOM     23  CB  ALA A   8       4.507   1.788  19.385  0.00  0.00    +0.035 C 
BRANCH  22  24
ATOM     24  C   ALA A   8       5.721   0.215  17.912  0.00  0.00    +0.245 C 
ATOM     25  O   ALA A   8       6.064  -0.886  17.490  0.00  0.00    -0.299 OA
ENDBRANCH  22  24
ENDBRANCH  20  22
ENDBRANCH  17  18
BRANCH  17  26
ATOM     26  CB  ASP A   7       8.236  -1.636  22.736  0.00  0.00    +0.089 C 
BRANCH  26  27
ATOM     27  CG  ASP A   7       9.677  -2.036  22.791  0.00  0.00    +0.025 C 
ATOM     28  OD1 ASP A   7      10.122  -2.802  23.632  0.00  0.00    -0.851 OA
BRANCH  27  29
ATOM     29  OD2 ASP A   7      10.412  -1.552  21.767  0.00  0.00    -0.526 OA
ATOM     30  HD2 ASP A   7      10.701  -0.617  21.882  0.00  0.00    +0.290 HD
ENDBRANCH  27  29
ENDBRANCH  26  27
ENDBRANCH  17  26
ENDBRANCH  14  17
ENDBRANCH  11  13
ENDBRANCH   9  11
ENDBRANCH   6   7
BRANCH   6  31
ATOM     31  CB  SER A   5       4.470   5.567  22.661  0.00  0.00    +0.187 C 
BRANCH  31  32
ATOM     32  OG  SER A   5       3.539   5.420  21.589  0.00  0.00    -0.393 OA
ATOM     33  H   SER A   5       3.081   4.572  21.730  0.00  0.00    +0.209 HD
ENDBRANCH  31  32
ENDBRANCH   6  31
ENDBRANCH   3   6
ENDBRANCH   1   2
BRANCH   1  36
ATOM     34  C   LEU A   3       4.318   0.225  26.566  0.00  0.00    +0.234 C 
ATOM     35  O   LEU A   3       3.098   0.057  26.548  0.00  0.00    -0.274 OA
ATOM     36  N   GLN A   4       4.895   1.470  26.495  0.00  0.00    -0.302 N 
ATOM     37  H   GLN A   4       5.905   1.574  26.548  0.00  0.00    +0.150 HD
BRANCH  34  38
ATOM     38  CA  LEU A   3       5.310  -0.959  26.633  0.00  0.00    +0.159 C 
BRANCH  38  40
ATOM     39  C   MET A   2       4.188  -3.188  26.744  0.00  0.00    +0.234 C 
ATOM     40  N   LEU A   3       4.633  -2.105  26.027  0.00  0.00    -0.302 N 
ATOM     41  H   LEU A   3       4.380  -2.004  25.047  0.00  0.00    +0.150 HD
ATOM     42  O   MET A   2       4.365  -3.312  27.956  0.00  0.00    -0.274 OA
BRANCH  39  43
ATOM     43  CA  MET A   2       3.398  -4.231  25.931  0.00  0.00    +0.160 C 
BRANCH  43  46
ATOM     44  C   PRO A   1       4.448  -5.169  23.883  0.00  0.00    +0.231 C 
ATOM     45  O   PRO A   1       3.672  -4.572  23.137  0.00  0.00    -0.274 OA
ATOM     46  N   MET A   2       4.382  -5.070  25.252  0.00  0.00    -0.303 N 
ATOM     47  H   MET A   2       5.052  -5.556  25.840  0.00  0.00    +0.149 HD
BRANCH  44  53
ATOM     48  N   PRO A   1       5.325  -6.364  21.906  0.00  0.00    -0.306 NA
ATOM     49  H   PRO A   1       4.548  -5.758  21.617  0.00  0.00    +0.123 HD
ATOM     50  CD  PRO A   1       6.524  -5.927  21.182  0.00  0.00    +0.081 C 
ATOM     51  CG  PRO A   1       7.148  -4.856  22.052  0.00  0.00    +0.017 C 
ATOM     52  CB  PRO A   1       6.918  -5.394  23.452  0.00  0.00    +0.029 C 
ATOM     53  CA  PRO A   1       5.565  -6.085  23.348  0.00  0.00    +0.140 C 
ENDBRANCH  44  53
ENDBRANCH  43  46
BRANCH  43  54
ATOM     54  CB  MET A   2       2.500  -5.025  26.891  0.00  0.00    +0.042 C 
BRANCH  54  55
ATOM     55  CG  MET A   2       2.935  -6.481  27.048  0.00  0.00    +0.071 C 
BRANCH  55  56
ATOM     56  SD  MET A   2       3.443  -6.804  28.768  0.00  0.00    -0.164 S 
ATOM     57  CE  MET A   2       5.237  -6.749  28.523  0.00  0.00    +0.084 C 
ENDBRANCH  55  56
ENDBRANCH  54  55
ENDBRANCH  43  54
ENDBRANCH  39  43
ENDBRANCH  38  40
BRANCH  38  58
ATOM     58  CB  LEU A   3       6.600  -0.576  25.887  0.00  0.00    +0.034 C 
BRANCH  58  59
ATOM     59  CG  LEU A   3       7.918  -0.996  26.567  0.00  0.00    -0.015 C 
ATOM     60  CD2 LEU A   3       9.130  -0.265  25.985  0.00  0.00    +0.007 C 
ATOM     61  CD1 LEU A   3       8.118  -2.508  26.417  0.00  0.00    +0.007 C 
ENDBRANCH  58  59
ENDBRANCH  38  58
ENDBRANCH  34  38
ENDBRANCH   1  36
BRANCH   1  62
ATOM     62  CB  GLN A   4       4.786   3.818  27.233  0.00  0.00    +0.041 C 
BRANCH  62  63
ATOM     63  CG  GLN A   4       5.346   3.346  28.574  0.00  0.00    +0.098 C 
BRANCH  63  64
ATOM     64  CD  GLN A   4       6.755   3.827  28.854  0.00  0.00    +0.211 C 
ATOM     65  OE1 GLN A   4       7.581   3.137  29.443  0.00  0.00    -0.276 OA
ATOM     66  NE2 GLN A   4       7.051   5.110  28.508  0.00  0.00    -0.329 N 
ATOM     67 HE21 GLN A   4       8.005   5.410  28.665  0.00  0.00    +0.145 HD
ATOM     68 HE22 GLN A   4       6.480   5.669  27.892  0.00  0.00    +0.145 HD
ENDBRANCH  63  64
ENDBRANCH  62  63
ENDBRANCH   1  62
TORSDOF 28
ENDMDL
MODEL 10
REMARK VINA RESULT:      -5.6      2.621      7.906
REMARK  Name = PMLQSADA-mmff94.pdb
REMARK  33 active torsions:
REMARK  status: ('A' for Active; 'I' for Inactive)
REMARK    1  A    between atoms: _2  and  _3
REMARK    2  A    between atoms: _15  and  _16
REMARK    3  A    between atoms: _16  and  _17
REMARK    4  A    between atoms: _16  and  _19
REMARK    5  A    between atoms: _19  and  _20
REMARK    6  A    between atoms: _20  and  _21
REMARK    7  A    between atoms: _21  and  _22
REMARK    8  A    between atoms: _32  and  _33
REMARK    9  A    between atoms: _33  and  _34
REMARK   10  A    between atoms: _33  and  _36
REMARK   11  A    between atoms: _36  and  _37
REMARK   12  A    between atoms: _37  and  _38
REMARK   13  A    between atoms: _37  and  _39
REMARK   14  A    between atoms: _51  and  _52
REMARK   15  A    between atoms: _52  and  _53
REMARK   16  A    between atoms: _52  and  _55
REMARK   17  A    between atoms: _55  and  _56
REMARK   18  A    between atoms: _56  and  _57
REMARK   19  A    between atoms: _68  and  _69
REMARK   20  A    between atoms: _69  and  _70
REMARK   21  A    between atoms: _69  and  _72
REMARK   22  A    between atoms: _72  and  _73
REMARK   23  A    between atoms: _79  and  _80
REMARK   24  A    between atoms: _80  and  _81
REMARK   25  A    between atoms: _80  and  _83
REMARK   26  A    between atoms: _89  and  _90
REMARK   27  A    between atoms: _90  and  _91
REMARK   28  A    between atoms: _90  and  _93
REMARK   29  A    between atoms: _93  and  _94
REMARK   30  A    between atoms: _94  and  _95
REMARK   31  A    between atoms: _101  and  _102
REMARK   32  A    between atoms: _102  and  _103
REMARK   33  A    between atoms: _102  and  _105
REMARK                            x       y       z     vdW  Elec       q    Type
REMARK                         _______ _______ _______ _____ _____    ______ ____
ROOT
ATOM      1  CA  GLN A   4       6.456  -0.195  20.939  0.00  0.00    +0.159 C 
ENDROOT
BRANCH   1   2
ATOM      2  C   GLN A   4       6.653  -1.559  21.632  0.00  0.00    +0.234 C 
ATOM      3  N   SER A   5       5.767  -2.545  21.282  0.00  0.00    -0.301 N 
ATOM      4  H   SER A   5       5.053  -2.390  20.570  0.00  0.00    +0.150 HD
ATOM      5  O   GLN A   4       7.565  -1.755  22.436  0.00  0.00    -0.274 OA
BRANCH   3   6
ATOM      6  CA  SER A   5       5.915  -3.933  21.740  0.00  0.00    +0.184 C 
BRANCH   6   7
ATOM      7  C   SER A   5       4.968  -4.133  22.937  0.00  0.00    +0.236 C 
ATOM      8  O   SER A   5       4.554  -3.176  23.595  0.00  0.00    -0.274 OA
ATOM      9  N   ALA A   6       4.581  -5.429  23.189  0.00  0.00    -0.303 N 
ATOM     10  H   ALA A   6       4.955  -6.205  22.652  0.00  0.00    +0.149 HD
BRANCH   9  11
ATOM     11  CA  ALA A   6       3.693  -5.769  24.297  0.00  0.00    +0.156 C 
ATOM     12  CB  ALA A   6       2.985  -7.098  24.048  0.00  0.00    +0.038 C 
BRANCH  11  13
ATOM     13  C   ALA A   6       4.520  -5.831  25.600  0.00  0.00    +0.234 C 
ATOM     14  N   ASP A   7       4.821  -4.612  26.159  0.00  0.00    -0.302 N 
ATOM     15  H   ASP A   7       4.521  -3.741  25.724  0.00  0.00    +0.150 HD
ATOM     16  O   ALA A   6       4.901  -6.887  26.113  0.00  0.00    -0.274 OA
BRANCH  14  17
ATOM     17  CA  ASP A   7       5.497  -4.499  27.450  0.00  0.00    +0.165 C 
BRANCH  17  18
ATOM     18  C   ASP A   7       4.641  -3.604  28.361  0.00  0.00    +0.234 C 
ATOM     19  O   ASP A   7       4.147  -4.036  29.403  0.00  0.00    -0.274 OA
ATOM     20  N   ALA A   8       4.469  -2.313  27.925  0.00  0.00    -0.305 N 
ATOM     21  H   ALA A   8       4.805  -2.017  27.004  0.00  0.00    +0.149 HD
BRANCH  20  22
ATOM     22  CA  ALA A   8       3.650  -1.350  28.649  0.00  0.00    +0.133 C 
ATOM     23  CB  ALA A   8       4.470  -0.451  29.565  0.00  0.00    +0.035 C 
BRANCH  22  24
ATOM     24  C   ALA A   8       2.911  -0.476  27.645  0.00  0.00    +0.245 C 
ATOM     25  O   ALA A   8       3.133  -0.487  26.437  0.00  0.00    -0.299 OA
ENDBRANCH  22  24
ENDBRANCH  20  22
ENDBRANCH  17  18
BRANCH  17  26
ATOM     26  CB  ASP A   7       6.893  -3.909  27.296  0.00  0.00    +0.089 C 
BRANCH  26  27
ATOM     27  CG  ASP A   7       7.818  -5.038  26.962  0.00  0.00    +0.025 C 
ATOM     28  OD1 ASP A   7       8.816  -4.895  26.272  0.00  0.00    -0.851 OA
BRANCH  27  29
ATOM     29  OD2 ASP A   7       7.502  -6.196  27.577  0.00  0.00    -0.526 OA
ATOM     30  HD2 ASP A   7       6.861  -6.099  28.319  0.00  0.00    +0.290 HD
ENDBRANCH  27  29
ENDBRANCH  26  27
ENDBRANCH  17  26
ENDBRANCH  14  17
ENDBRANCH  11  13
ENDBRANCH   9  11
ENDBRANCH   6   7
BRANCH   6  31
ATOM     31  CB  SER A   5       7.366  -4.264  22.107  0.00  0.00    +0.187 C 
BRANCH  31  32
ATOM     32  OG  SER A   5       7.526  -4.442  23.514  0.00  0.00    -0.393 OA
ATOM     33  H   SER A   5       6.630  -4.466  23.897  0.00  0.00    +0.209 HD
ENDBRANCH  31  32
ENDBRANCH   6  31
ENDBRANCH   3   6
ENDBRANCH   1   2
BRANCH   1  36
ATOM     34  C   LEU A   3       6.476   2.095  21.928  0.00  0.00    +0.234 C 
ATOM     35  O   LEU A   3       5.547   2.480  21.217  0.00  0.00    -0.274 OA
ATOM     36  N   GLN A   4       6.971   0.814  21.868  0.00  0.00    -0.302 N 
ATOM     37  H   GLN A   4       7.763   0.540  22.445  0.00  0.00    +0.150 HD
BRANCH  34  38
ATOM     38  CA  LEU A   3       7.142   3.011  22.979  0.00  0.00    +0.159 C 
BRANCH  38  40
ATOM     39  C   MET A   2       5.915   2.373  25.059  0.00  0.00    +0.234 C 
ATOM     40  N   LEU A   3       7.033   2.321  24.264  0.00  0.00    -0.302 N 
ATOM     41  H   LEU A   3       7.788   1.677  24.487  0.00  0.00    +0.150 HD
ATOM     42  O   MET A   2       4.923   3.046  24.783  0.00  0.00    -0.274 OA
BRANCH  39  43
ATOM     43  CA  MET A   2       5.964   1.480  26.313  0.00  0.00    +0.160 C 
BRANCH  43  46
ATOM     44  C   PRO A   1       7.401  -0.503  25.897  0.00  0.00    +0.231 C 
ATOM     45  O   PRO A   1       6.448  -1.196  25.538  0.00  0.00    -0.274 OA
ATOM     46  N   MET A   2       7.256   0.802  26.300  0.00  0.00    -0.303 N 
ATOM     47  H   MET A   2       8.066   1.355  26.567  0.00  0.00    +0.149 HD
BRANCH  44  53
ATOM     48  N   PRO A   1       8.967  -2.183  24.982  0.00  0.00    -0.306 NA
ATOM     49  H   PRO A   1       8.085  -2.221  24.457  0.00  0.00    +0.123 HD
ATOM     50  CD  PRO A   1      10.034  -1.839  24.036  0.00  0.00    +0.081 C 
ATOM     51  CG  PRO A   1      10.079  -0.326  24.017  0.00  0.00    +0.017 C 
ATOM     52  CB  PRO A   1       9.824   0.030  25.469  0.00  0.00    +0.029 C 
ATOM     53  CA  PRO A   1       8.844  -1.041  25.930  0.00  0.00    +0.140 C 
ENDBRANCH  44  53
ENDBRANCH  43  46
BRANCH  43  54
ATOM     54  CB  MET A   2       5.770   2.365  27.554  0.00  0.00    +0.042 C 
BRANCH  54  55
ATOM     55  CG  MET A   2       6.858   3.427  27.707  0.00  0.00    +0.071 C 
BRANCH  55  56
ATOM     56  SD  MET A   2       6.111   5.087  27.787  0.00  0.00    -0.164 S 
ATOM     57  CE  MET A   2       6.958   5.821  26.365  0.00  0.00    +0.084 C 
ENDBRANCH  55  56
ENDBRANCH  54  55
ENDBRANCH  43  54
ENDBRANCH  39  43
ENDBRANCH  38  40
BRANCH  38  58
ATOM     58  CB  LEU A   3       8.604   3.265  22.570  0.00  0.00    +0.034 C 
BRANCH  58  59
ATOM     59  CG  LEU A   3       9.546   3.729  23.699  0.00  0.00    -0.015 C 
ATOM     60  CD2 LEU A   3       9.596   5.254  23.823  0.00  0.00    +0.007 C 
ATOM     61  CD1 LEU A   3      10.960   3.195  23.445  0.00  0.00    +0.007 C 
ENDBRANCH  58  59
ENDBRANCH  38  58
ENDBRANCH  34  38
ENDBRANCH   1  36
BRANCH   1  62
ATOM     62  CB  GLN A   4       7.209  -0.122  19.602  0.00  0.00    +0.041 C 
BRANCH  62  63
ATOM     63  CG  GLN A   4       6.299  -0.195  18.377  0.00  0.00    +0.098 C 
BRANCH  63  64
ATOM     64  CD  GLN A   4       5.864   1.159  17.854  0.00  0.00    +0.211 C 
ATOM     65  OE1 GLN A   4       6.402   1.698  16.892  0.00  0.00    -0.276 OA
ATOM     66  NE2 GLN A   4       4.899   1.812  18.558  0.00  0.00    -0.329 N 
ATOM     67 HE21 GLN A   4       4.588   2.699  18.180  0.00  0.00    +0.145 HD
ATOM     68 HE22 GLN A   4       4.315   1.369  19.252  0.00  0.00    +0.145 HD
ENDBRANCH  63  64
ENDBRANCH  62  63
ENDBRANCH   1  62
TORSDOF 28
ENDMDL
MODEL 11
REMARK VINA RESULT:      -5.6      2.483      8.756
REMARK  Name = PMLQSADA-mmff94.pdb
REMARK  33 active torsions:
REMARK  status: ('A' for Active; 'I' for Inactive)
REMARK    1  A    between atoms: _2  and  _3
REMARK    2  A    between atoms: _15  and  _16
REMARK    3  A    between atoms: _16  and  _17
REMARK    4  A    between atoms: _16  and  _19
REMARK    5  A    between atoms: _19  and  _20
REMARK    6  A    between atoms: _20  and  _21
REMARK    7  A    between atoms: _21  and  _22
REMARK    8  A    between atoms: _32  and  _33
REMARK    9  A    between atoms: _33  and  _34
REMARK   10  A    between atoms: _33  and  _36
REMARK   11  A    between atoms: _36  and  _37
REMARK   12  A    between atoms: _37  and  _38
REMARK   13  A    between atoms: _37  and  _39
REMARK   14  A    between atoms: _51  and  _52
REMARK   15  A    between atoms: _52  and  _53
REMARK   16  A    between atoms: _52  and  _55
REMARK   17  A    between atoms: _55  and  _56
REMARK   18  A    between atoms: _56  and  _57
REMARK   19  A    between atoms: _68  and  _69
REMARK   20  A    between atoms: _69  and  _70
REMARK   21  A    between atoms: _69  and  _72
REMARK   22  A    between atoms: _72  and  _73
REMARK   23  A    between atoms: _79  and  _80
REMARK   24  A    between atoms: _80  and  _81
REMARK   25  A    between atoms: _80  and  _83
REMARK   26  A    between atoms: _89  and  _90
REMARK   27  A    between atoms: _90  and  _91
REMARK   28  A    between atoms: _90  and  _93
REMARK   29  A    between atoms: _93  and  _94
REMARK   30  A    between atoms: _94  and  _95
REMARK   31  A    between atoms: _101  and  _102
REMARK   32  A    between atoms: _102  and  _103
REMARK   33  A    between atoms: _102  and  _105
REMARK                            x       y       z     vdW  Elec       q    Type
REMARK                         _______ _______ _______ _____ _____    ______ ____
ROOT
ATOM      1  CA  GLN A   4       9.322  -0.849  24.114  0.00  0.00    +0.159 C 
ENDROOT
BRANCH   1   2
ATOM      2  C   GLN A   4       8.709  -1.057  25.515  0.00  0.00    +0.234 C 
ATOM      3  N   SER A   5       7.444  -1.582  25.545  0.00  0.00    -0.301 N 
ATOM      4  H   SER A   5       6.962  -1.859  24.690  0.00  0.00    +0.150 HD
ATOM      5  O   GLN A   4       9.330  -0.786  26.543  0.00  0.00    -0.274 OA
BRANCH   3   6
ATOM      6  CA  SER A   5       6.787  -1.976  26.799  0.00  0.00    +0.184 C 
BRANCH   6   7
ATOM      7  C   SER A   5       6.967  -3.496  26.964  0.00  0.00    +0.236 C 
ATOM      8  O   SER A   5       7.907  -4.092  26.433  0.00  0.00    -0.274 OA
ATOM      9  N   ALA A   6       6.049  -4.128  27.769  0.00  0.00    -0.303 N 
ATOM     10  H   ALA A   6       5.267  -3.623  28.174  0.00  0.00    +0.149 HD
BRANCH   9  11
ATOM     11  CA  ALA A   6       6.091  -5.568  28.008  0.00  0.00    +0.156 C 
ATOM     12  CB  ALA A   6       5.624  -5.906  29.422  0.00  0.00    +0.038 C 
BRANCH  11  13
ATOM     13  C   ALA A   6       5.205  -6.275  26.960  0.00  0.00    +0.234 C 
ATOM     14  N   ASP A   7       4.557  -5.440  26.084  0.00  0.00    -0.302 N 
ATOM     15  H   ASP A   7       4.657  -4.427  26.144  0.00  0.00    +0.150 HD
ATOM     16  O   ALA A   6       5.067  -7.501  26.904  0.00  0.00    -0.274 OA
BRANCH  14  17
ATOM     17  CA  ASP A   7       3.770  -5.953  24.962  0.00  0.00    +0.165 C 
BRANCH  17  18
ATOM     18  C   ASP A   7       4.399  -5.430  23.660  0.00  0.00    +0.234 C 
ATOM     19  O   ASP A   7       3.702  -5.087  22.705  0.00  0.00    -0.274 OA
ATOM     20  N   ALA A   8       5.771  -5.381  23.647  0.00  0.00    -0.305 N 
ATOM     21  H   ALA A   8       6.321  -5.772  24.417  0.00  0.00    +0.149 HD
BRANCH  20  22
ATOM     22  CA  ALA A   8       6.523  -4.951  22.476  0.00  0.00    +0.133 C 
ATOM     23  CB  ALA A   8       6.190  -5.765  21.232  0.00  0.00    +0.035 C 
BRANCH  22  24
ATOM     24  C   ALA A   8       6.210  -3.487  22.196  0.00  0.00    +0.245 C 
ATOM     25  O   ALA A   8       6.113  -2.631  23.071  0.00  0.00    -0.299 OA
ENDBRANCH  22  24
ENDBRANCH  20  22
ENDBRANCH  17  18
BRANCH  17  26
ATOM     26  CB  ASP A   7       2.315  -5.514  25.057  0.00  0.00    +0.089 C 
BRANCH  26  27
ATOM     27  CG  ASP A   7       2.291  -4.214  25.798  0.00  0.00    +0.025 C 
ATOM     28  OD1 ASP A   7       2.111  -4.140  27.004  0.00  0.00    -0.851 OA
BRANCH  27  29
ATOM     29  OD2 ASP A   7       2.586  -3.147  25.026  0.00  0.00    -0.526 OA
ATOM     30  HD2 ASP A   7       1.813  -2.573  24.815  0.00  0.00    +0.290 HD
ENDBRANCH  27  29
ENDBRANCH  26  27
ENDBRANCH  17  26
ENDBRANCH  14  17
ENDBRANCH  11  13
ENDBRANCH   9  11
ENDBRANCH   6   7
BRANCH   6  31
ATOM     31  CB  SER A   5       5.307  -1.576  26.822  0.00  0.00    +0.187 C 
BRANCH  31  32
ATOM     32  OG  SER A   5       4.780  -1.437  25.503  0.00  0.00    -0.393 OA
ATOM     33  H   SER A   5       3.810  -1.398  25.591  0.00  0.00    +0.209 HD
ENDBRANCH  31  32
ENDBRANCH   6  31
ENDBRANCH   3   6
ENDBRANCH   1   2
BRANCH   1  36
ATOM     34  C   LEU A   3       8.302  -0.413  21.880  0.00  0.00    +0.234 C 
ATOM     35  O   LEU A   3       9.288  -0.836  21.276  0.00  0.00    -0.274 OA
ATOM     36  N   GLN A   4       8.228  -0.393  23.252  0.00  0.00    -0.302 N 
ATOM     37  H   GLN A   4       7.412  -0.004  23.719  0.00  0.00    +0.150 HD
BRANCH  34  38
ATOM     38  CA  LEU A   3       7.043   0.099  21.143  0.00  0.00    +0.159 C 
BRANCH  38  40
ATOM     39  C   MET A   2       6.691   2.337  22.193  0.00  0.00    +0.234 C 
ATOM     40  N   LEU A   3       6.364   1.011  22.063  0.00  0.00    -0.302 N 
ATOM     41  H   LEU A   3       5.531   0.643  22.517  0.00  0.00    +0.150 HD
ATOM     42  O   MET A   2       7.619   2.866  21.582  0.00  0.00    -0.274 OA
BRANCH  39  43
ATOM     43  CA  MET A   2       5.775   3.147  23.131  0.00  0.00    +0.160 C 
BRANCH  43  46
ATOM     44  C   PRO A   1       6.526   2.169  25.288  0.00  0.00    +0.231 C 
ATOM     45  O   PRO A   1       6.002   1.081  25.049  0.00  0.00    -0.274 OA
ATOM     46  N   MET A   2       6.457   3.230  24.419  0.00  0.00    -0.303 N 
ATOM     47  H   MET A   2       6.922   4.108  24.635  0.00  0.00    +0.149 HD
BRANCH  44  53
ATOM     48  N   PRO A   1       7.289   3.899  26.880  0.00  0.00    -0.306 NA
ATOM     49  H   PRO A   1       6.643   4.323  26.204  0.00  0.00    +0.123 HD
ATOM     50  CD  PRO A   1       6.705   4.060  28.216  0.00  0.00    +0.081 C 
ATOM     51  CG  PRO A   1       5.828   2.842  28.419  0.00  0.00    +0.017 C 
ATOM     52  CB  PRO A   1       6.641   1.739  27.766  0.00  0.00    +0.029 C 
ATOM     53  CA  PRO A   1       7.307   2.439  26.589  0.00  0.00    +0.140 C 
ENDBRANCH  44  53
ENDBRANCH  43  46
BRANCH  43  54
ATOM     54  CB  MET A   2       5.522   4.525  22.502  0.00  0.00    +0.042 C 
BRANCH  54  55
ATOM     55  CG  MET A   2       4.091   5.021  22.705  0.00  0.00    +0.071 C 
BRANCH  55  56
ATOM     56  SD  MET A   2       2.958   3.608  22.909  0.00  0.00    -0.164 S 
ATOM     57  CE  MET A   2       2.620   3.294  21.158  0.00  0.00    +0.084 C 
ENDBRANCH  55  56
ENDBRANCH  54  55
ENDBRANCH  43  54
ENDBRANCH  39  43
ENDBRANCH  38  40
BRANCH  38  58
ATOM     58  CB  LEU A   3       7.473   0.793  19.838  0.00  0.00    +0.034 C 
BRANCH  58  59
ATOM     59  CG  LEU A   3       6.818   0.260  18.548  0.00  0.00    -0.015 C 
ATOM     60  CD2 LEU A   3       5.955   1.317  17.855  0.00  0.00    +0.007 C 
ATOM     61  CD1 LEU A   3       5.955  -0.964  18.874  0.00  0.00    +0.007 C 
ENDBRANCH  58  59
ENDBRANCH  38  58
ENDBRANCH  34  38
ENDBRANCH   1  36
BRANCH   1  62
ATOM     62  CB  GLN A   4      10.453   0.191  24.136  0.00  0.00    +0.041 C 
BRANCH  62  63
ATOM     63  CG  GLN A   4       9.961   1.636  24.205  0.00  0.00    +0.098 C 
BRANCH  63  64
ATOM     64  CD  GLN A   4      10.579   2.545  23.163  0.00  0.00    +0.211 C 
ATOM     65  OE1 GLN A   4      11.141   3.595  23.455  0.00  0.00    -0.276 OA
ATOM     66  NE2 GLN A   4      10.405   2.198  21.858  0.00  0.00    -0.329 N 
ATOM     67 HE21 GLN A   4      10.854   2.791  21.171  0.00  0.00    +0.145 HD
ATOM     68 HE22 GLN A   4      10.096   1.285  21.558  0.00  0.00    +0.145 HD
ENDBRANCH  63  64
ENDBRANCH  62  63
ENDBRANCH   1  62
TORSDOF 28
ENDMDL
MODEL 12
REMARK VINA RESULT:      -5.6      2.133      5.302
REMARK  Name = PMLQSADA-mmff94.pdb
REMARK  33 active torsions:
REMARK  status: ('A' for Active; 'I' for Inactive)
REMARK    1  A    between atoms: _2  and  _3
REMARK    2  A    between atoms: _15  and  _16
REMARK    3  A    between atoms: _16  and  _17
REMARK    4  A    between atoms: _16  and  _19
REMARK    5  A    between atoms: _19  and  _20
REMARK    6  A    between atoms: _20  and  _21
REMARK    7  A    between atoms: _21  and  _22
REMARK    8  A    between atoms: _32  and  _33
REMARK    9  A    between atoms: _33  and  _34
REMARK   10  A    between atoms: _33  and  _36
REMARK   11  A    between atoms: _36  and  _37
REMARK   12  A    between atoms: _37  and  _38
REMARK   13  A    between atoms: _37  and  _39
REMARK   14  A    between atoms: _51  and  _52
REMARK   15  A    between atoms: _52  and  _53
REMARK   16  A    between atoms: _52  and  _55
REMARK   17  A    between atoms: _55  and  _56
REMARK   18  A    between atoms: _56  and  _57
REMARK   19  A    between atoms: _68  and  _69
REMARK   20  A    between atoms: _69  and  _70
REMARK   21  A    between atoms: _69  and  _72
REMARK   22  A    between atoms: _72  and  _73
REMARK   23  A    between atoms: _79  and  _80
REMARK   24  A    between atoms: _80  and  _81
REMARK   25  A    between atoms: _80  and  _83
REMARK   26  A    between atoms: _89  and  _90
REMARK   27  A    between atoms: _90  and  _91
REMARK   28  A    between atoms: _90  and  _93
REMARK   29  A    between atoms: _93  and  _94
REMARK   30  A    between atoms: _94  and  _95
REMARK   31  A    between atoms: _101  and  _102
REMARK   32  A    between atoms: _102  and  _103
REMARK   33  A    between atoms: _102  and  _105
REMARK                            x       y       z     vdW  Elec       q    Type
REMARK                         _______ _______ _______ _____ _____    ______ ____
ROOT
ATOM      1  CA  GLN A   4       4.040  -3.293  27.413  0.00  0.00    +0.159 C 
ENDROOT
BRANCH   1   2
ATOM      2  C   GLN A   4       4.334  -1.784  27.555  0.00  0.00    +0.234 C 
ATOM      3  N   SER A   5       5.537  -1.357  27.058  0.00  0.00    -0.301 N 
ATOM      4  H   SER A   5       6.174  -1.995  26.583  0.00  0.00    +0.150 HD
ATOM      5  O   GLN A   4       3.524  -1.010  28.066  0.00  0.00    -0.274 OA
BRANCH   3   6
ATOM      6  CA  SER A   5       5.895   0.066  26.983  0.00  0.00    +0.184 C 
BRANCH   6   7
ATOM      7  C   SER A   5       5.529   0.567  25.574  0.00  0.00    +0.236 C 
ATOM      8  O   SER A   5       5.323  -0.219  24.647  0.00  0.00    -0.274 OA
ATOM      9  N   ALA A   6       5.404   1.930  25.432  0.00  0.00    -0.303 N 
ATOM     10  H   ALA A   6       5.605   2.560  26.202  0.00  0.00    +0.149 HD
BRANCH   9  11
ATOM     11  CA  ALA A   6       5.071   2.546  24.151  0.00  0.00    +0.156 C 
ATOM     12  CB  ALA A   6       3.617   3.011  24.125  0.00  0.00    +0.038 C 
BRANCH  11  13
ATOM     13  C   ALA A   6       6.025   3.735  23.905  0.00  0.00    +0.234 C 
ATOM     14  N   ASP A   7       6.916   3.989  24.919  0.00  0.00    -0.302 N 
ATOM     15  H   ASP A   7       6.924   3.428  25.771  0.00  0.00    +0.150 HD
ATOM     16  O   ALA A   6       5.997   4.427  22.883  0.00  0.00    -0.274 OA
BRANCH  14  17
ATOM     17  CA  ASP A   7       7.961   5.005  24.796  0.00  0.00    +0.165 C 
BRANCH  17  18
ATOM     18  C   ASP A   7       9.256   4.306  24.353  0.00  0.00    +0.234 C 
ATOM     19  O   ASP A   7      10.221   4.949  23.938  0.00  0.00    -0.274 OA
ATOM     20  N   ALA A   8       9.250   2.937  24.450  0.00  0.00    -0.305 N 
ATOM     21  H   ALA A   8       8.396   2.429  24.698  0.00  0.00    +0.149 HD
BRANCH  20  22
ATOM     22  CA  ALA A   8      10.381   2.122  24.030  0.00  0.00    +0.133 C 
ATOM     23  CB  ALA A   8      10.366   0.730  24.649  0.00  0.00    +0.035 C 
BRANCH  22  24
ATOM     24  C   ALA A   8      10.353   1.979  22.514  0.00  0.00    +0.245 C 
ATOM     25  O   ALA A   8       9.397   2.305  21.816  0.00  0.00    -0.299 OA
ENDBRANCH  22  24
ENDBRANCH  20  22
ENDBRANCH  17  18
BRANCH  17  26
ATOM     26  CB  ASP A   7       8.181   5.736  26.114  0.00  0.00    +0.089 C 
BRANCH  26  27
ATOM     27  CG  ASP A   7       7.099   5.300  27.051  0.00  0.00    +0.025 C 
ATOM     28  OD1 ASP A   7       5.984   5.798  27.055  0.00  0.00    -0.851 OA
BRANCH  27  29
ATOM     29  OD2 ASP A   7       7.440   4.242  27.816  0.00  0.00    -0.526 OA
ATOM     30  HD2 ASP A   7       6.789   4.026  28.523  0.00  0.00    +0.290 HD
ENDBRANCH  27  29
ENDBRANCH  26  27
ENDBRANCH  17  26
ENDBRANCH  14  17
ENDBRANCH  11  13
ENDBRANCH   9  11
ENDBRANCH   6   7
BRANCH   6  31
ATOM     31  CB  SER A   5       7.375   0.303  27.301  0.00  0.00    +0.187 C 
BRANCH  31  32
ATOM     32  OG  SER A   5       7.823   1.567  26.810  0.00  0.00    -0.393 OA
ATOM     33  H   SER A   5       8.757   1.454  26.558  0.00  0.00    +0.209 HD
ENDBRANCH  31  32
ENDBRANCH   6  31
ENDBRANCH   3   6
ENDBRANCH   1   2
BRANCH   1  36
ATOM     34  C   LEU A   3       3.434  -3.495  25.002  0.00  0.00    +0.234 C 
ATOM     35  O   LEU A   3       2.303  -3.043  25.182  0.00  0.00    -0.274 OA
ATOM     36  N   GLN A   4       4.344  -3.640  26.022  0.00  0.00    -0.302 N 
ATOM     37  H   GLN A   4       5.257  -4.050  25.844  0.00  0.00    +0.150 HD
BRANCH  34  38
ATOM     38  CA  LEU A   3       3.942  -3.906  23.601  0.00  0.00    +0.159 C 
BRANCH  38  40
ATOM     39  C   MET A   2       5.929  -3.251  22.237  0.00  0.00    +0.234 C 
ATOM     40  N   LEU A   3       5.249  -3.273  23.430  0.00  0.00    -0.302 N 
ATOM     41  H   LEU A   3       5.581  -2.721  24.217  0.00  0.00    +0.150 HD
ATOM     42  O   MET A   2       5.519  -3.806  21.218  0.00  0.00    -0.274 OA
BRANCH  39  43
ATOM     43  CA  MET A   2       7.233  -2.431  22.244  0.00  0.00    +0.160 C 
BRANCH  43  46
ATOM     44  C   PRO A   1       7.989  -0.565  20.788  0.00  0.00    +0.231 C 
ATOM     45  O   PRO A   1       9.168  -0.915  20.846  0.00  0.00    -0.274 OA
ATOM     46  N   MET A   2       6.985  -1.236  21.443  0.00  0.00    -0.303 N 
ATOM     47  H   MET A   2       6.018  -0.936  21.356  0.00  0.00    +0.149 HD
BRANCH  44  53
ATOM     48  N   PRO A   1       7.546   0.325  18.525  0.00  0.00    -0.306 NA
ATOM     49  H   PRO A   1       7.730  -0.684  18.461  0.00  0.00    +0.123 HD
ATOM     50  CD  PRO A   1       6.191   0.565  18.018  0.00  0.00    +0.081 C 
ATOM     51  CG  PRO A   1       5.282   0.412  19.219  0.00  0.00    +0.017 C 
ATOM     52  CB  PRO A   1       6.101   1.037  20.333  0.00  0.00    +0.029 C 
ATOM     53  CA  PRO A   1       7.532   0.662  19.975  0.00  0.00    +0.140 C 
ENDBRANCH  44  53
ENDBRANCH  43  46
BRANCH  43  54
ATOM     54  CB  MET A   2       7.602  -2.106  23.699  0.00  0.00    +0.042 C 
BRANCH  54  55
ATOM     55  CG  MET A   2       8.874  -2.812  24.166  0.00  0.00    +0.071 C 
BRANCH  55  56
ATOM     56  SD  MET A   2       8.476  -4.474  24.797  0.00  0.00    -0.164 S 
ATOM     57  CE  MET A   2       8.049  -4.011  26.494  0.00  0.00    +0.084 C 
ENDBRANCH  55  56
ENDBRANCH  54  55
ENDBRANCH  43  54
ENDBRANCH  39  43
ENDBRANCH  38  40
BRANCH  38  58
ATOM     58  CB  LEU A   3       4.018  -5.442  23.525  0.00  0.00    +0.034 C 
BRANCH  58  59
ATOM     59  CG  LEU A   3       2.736  -6.198  23.928  0.00  0.00    -0.015 C 
ATOM     60  CD2 LEU A   3       3.039  -7.546  24.586  0.00  0.00    +0.007 C 
ATOM     61  CD1 LEU A   3       1.860  -6.423  22.691  0.00  0.00    +0.007 C 
ENDBRANCH  58  59
ENDBRANCH  38  58
ENDBRANCH  34  38
ENDBRANCH   1  36
BRANCH   1  62
ATOM     62  CB  GLN A   4       4.899  -4.132  28.372  0.00  0.00    +0.041 C 
BRANCH  62  63
ATOM     63  CG  GLN A   4       4.429  -5.579  28.513  0.00  0.00    +0.098 C 
BRANCH  63  64
ATOM     64  CD  GLN A   4       5.427  -6.600  28.006  0.00  0.00    +0.211 C 
ATOM     65  OE1 GLN A   4       5.561  -6.855  26.814  0.00  0.00    -0.276 OA
ATOM     66  NE2 GLN A   4       6.118  -7.307  28.942  0.00  0.00    -0.329 N 
ATOM     67 HE21 GLN A   4       6.809  -7.960  28.594  0.00  0.00    +0.145 HD
ATOM     68 HE22 GLN A   4       6.171  -7.044  29.916  0.00  0.00    +0.145 HD
ENDBRANCH  63  64
ENDBRANCH  62  63
ENDBRANCH   1  62
TORSDOF 28
ENDMDL
MODEL 13
REMARK VINA RESULT:      -5.5      2.549      8.339
REMARK  Name = PMLQSADA-mmff94.pdb
REMARK  33 active torsions:
REMARK  status: ('A' for Active; 'I' for Inactive)
REMARK    1  A    between atoms: _2  and  _3
REMARK    2  A    between atoms: _15  and  _16
REMARK    3  A    between atoms: _16  and  _17
REMARK    4  A    between atoms: _16  and  _19
REMARK    5  A    between atoms: _19  and  _20
REMARK    6  A    between atoms: _20  and  _21
REMARK    7  A    between atoms: _21  and  _22
REMARK    8  A    between atoms: _32  and  _33
REMARK    9  A    between atoms: _33  and  _34
REMARK   10  A    between atoms: _33  and  _36
REMARK   11  A    between atoms: _36  and  _37
REMARK   12  A    between atoms: _37  and  _38
REMARK   13  A    between atoms: _37  and  _39
REMARK   14  A    between atoms: _51  and  _52
REMARK   15  A    between atoms: _52  and  _53
REMARK   16  A    between atoms: _52  and  _55
REMARK   17  A    between atoms: _55  and  _56
REMARK   18  A    between atoms: _56  and  _57
REMARK   19  A    between atoms: _68  and  _69
REMARK   20  A    between atoms: _69  and  _70
REMARK   21  A    between atoms: _69  and  _72
REMARK   22  A    between atoms: _72  and  _73
REMARK   23  A    between atoms: _79  and  _80
REMARK   24  A    between atoms: _80  and  _81
REMARK   25  A    between atoms: _80  and  _83
REMARK   26  A    between atoms: _89  and  _90
REMARK   27  A    between atoms: _90  and  _91
REMARK   28  A    between atoms: _90  and  _93
REMARK   29  A    between atoms: _93  and  _94
REMARK   30  A    between atoms: _94  and  _95
REMARK   31  A    between atoms: _101  and  _102
REMARK   32  A    between atoms: _102  and  _103
REMARK   33  A    between atoms: _102  and  _105
REMARK                            x       y       z     vdW  Elec       q    Type
REMARK                         _______ _______ _______ _____ _____    ______ ____
ROOT
ATOM      1  CA  GLN A   4       9.654  -0.610  25.432  0.00  0.00    +0.159 C 
ENDROOT
BRANCH   1   2
ATOM      2  C   GLN A   4       9.432  -1.779  24.449  0.00  0.00    +0.234 C 
ATOM      3  N   SER A   5       8.974  -2.947  24.999  0.00  0.00    -0.301 N 
ATOM      4  H   SER A   5       8.751  -3.017  25.991  0.00  0.00    +0.150 HD
ATOM      5  O   GLN A   4       9.636  -1.659  23.241  0.00  0.00    -0.274 OA
BRANCH   3   6
ATOM      6  CA  SER A   5       8.574  -4.098  24.177  0.00  0.00    +0.184 C 
BRANCH   6   7
ATOM      7  C   SER A   5       7.042  -4.053  24.024  0.00  0.00    +0.236 C 
ATOM      8  O   SER A   5       6.497  -3.254  23.259  0.00  0.00    -0.274 OA
ATOM      9  N   ALA A   6       6.336  -4.982  24.752  0.00  0.00    -0.303 N 
ATOM     10  H   ALA A   6       6.804  -5.612  25.397  0.00  0.00    +0.149 HD
BRANCH   9  11
ATOM     11  CA  ALA A   6       4.879  -5.051  24.713  0.00  0.00    +0.156 C 
ATOM     12  CB  ALA A   6       4.401  -5.988  23.606  0.00  0.00    +0.038 C 
BRANCH  11  13
ATOM     13  C   ALA A   6       4.362  -5.527  26.088  0.00  0.00    +0.234 C 
ATOM     14  N   ASP A   7       4.769  -4.769  27.159  0.00  0.00    -0.302 N 
ATOM     15  H   ASP A   7       5.377  -3.960  27.036  0.00  0.00    +0.150 HD
ATOM     16  O   ALA A   6       3.645  -6.521  26.236  0.00  0.00    -0.274 OA
BRANCH  14  17
ATOM     17  CA  ASP A   7       4.278  -5.017  28.514  0.00  0.00    +0.165 C 
BRANCH  17  18
ATOM     18  C   ASP A   7       3.598  -3.733  29.017  0.00  0.00    +0.234 C 
ATOM     19  O   ASP A   7       2.764  -3.762  29.923  0.00  0.00    -0.274 OA
ATOM     20  N   ALA A   8       3.982  -2.576  28.385  0.00  0.00    -0.305 N 
ATOM     21  H   ALA A   8       4.598  -2.601  27.567  0.00  0.00    +0.149 HD
BRANCH  20  22
ATOM     22  CA  ALA A   8       3.402  -1.281  28.713  0.00  0.00    +0.133 C 
ATOM     23  CB  ALA A   8       4.383  -0.361  29.428  0.00  0.00    +0.035 C 
BRANCH  22  24
ATOM     24  C   ALA A   8       2.948  -0.603  27.428  0.00  0.00    +0.245 C 
ATOM     25  O   ALA A   8       2.779  -1.196  26.366  0.00  0.00    -0.299 OA
ENDBRANCH  22  24
ENDBRANCH  20  22
ENDBRANCH  17  18
BRANCH  17  26
ATOM     26  CB  ASP A   7       5.410  -5.414  29.451  0.00  0.00    +0.089 C 
BRANCH  26  27
ATOM     27  CG  ASP A   7       6.181  -6.507  28.779  0.00  0.00    +0.025 C 
ATOM     28  OD1 ASP A   7       5.736  -7.635  28.625  0.00  0.00    -0.851 OA
BRANCH  27  29
ATOM     29  OD2 ASP A   7       7.364  -6.102  28.272  0.00  0.00    -0.526 OA
ATOM     30  HD2 ASP A   7       8.148  -6.547  28.669  0.00  0.00    +0.290 HD
ENDBRANCH  27  29
ENDBRANCH  26  27
ENDBRANCH  17  26
ENDBRANCH  14  17
ENDBRANCH  11  13
ENDBRANCH   9  11
ENDBRANCH   6   7
BRANCH   6  31
ATOM     31  CB  SER A   5       9.043  -5.426  24.781  0.00  0.00    +0.187 C 
BRANCH  31  32
ATOM     32  OG  SER A   5       9.049  -5.381  26.208  0.00  0.00    -0.393 OA
ATOM     33  H   SER A   5       8.148  -5.609  26.500  0.00  0.00    +0.209 HD
ENDBRANCH  31  32
ENDBRANCH   6  31
ENDBRANCH   3   6
ENDBRANCH   1   2
BRANCH   1  36
ATOM     34  C   LEU A   3       9.919   1.557  24.227  0.00  0.00    +0.234 C 
ATOM     35  O   LEU A   3      11.148   1.484  24.232  0.00  0.00    -0.274 OA
ATOM     36  N   GLN A   4       9.118   0.585  24.774  0.00  0.00    -0.302 N 
ATOM     37  H   GLN A   4       8.106   0.695  24.785  0.00  0.00    +0.150 HD
BRANCH  34  38
ATOM     38  CA  LEU A   3       9.169   2.738  23.569  0.00  0.00    +0.159 C 
BRANCH  38  40
ATOM     39  C   MET A   2       7.181   2.829  22.059  0.00  0.00    +0.234 C 
ATOM     40  N   LEU A   3       7.934   2.188  23.012  0.00  0.00    -0.302 N 
ATOM     41  H   LEU A   3       7.721   1.227  23.268  0.00  0.00    +0.150 HD
ATOM     42  O   MET A   2       7.455   3.948  21.626  0.00  0.00    -0.274 OA
BRANCH  39  43
ATOM     43  CA  MET A   2       5.982   2.025  21.523  0.00  0.00    +0.160 C 
BRANCH  43  46
ATOM     44  C   PRO A   1       4.127   3.078  22.798  0.00  0.00    +0.231 C 
ATOM     45  O   PRO A   1       4.441   2.510  23.845  0.00  0.00    -0.274 OA
ATOM     46  N   MET A   2       4.812   2.893  21.622  0.00  0.00    -0.303 N 
ATOM     47  H   MET A   2       4.543   3.396  20.781  0.00  0.00    +0.149 HD
BRANCH  44  53
ATOM     48  N   PRO A   1       3.141   4.986  21.577  0.00  0.00    -0.306 NA
ATOM     49  H   PRO A   1       3.966   4.649  21.067  0.00  0.00    +0.123 HD
ATOM     50  CD  PRO A   1       1.980   4.847  20.691  0.00  0.00    +0.081 C 
ATOM     51  CG  PRO A   1       1.455   3.448  20.938  0.00  0.00    +0.017 C 
ATOM     52  CB  PRO A   1       1.645   3.285  22.434  0.00  0.00    +0.029 C 
ATOM     53  CA  PRO A   1       2.933   4.048  22.713  0.00  0.00    +0.140 C 
ENDBRANCH  44  53
ENDBRANCH  43  46
BRANCH  43  54
ATOM     54  CB  MET A   2       6.283   1.596  20.079  0.00  0.00    +0.042 C 
BRANCH  54  55
ATOM     55  CG  MET A   2       7.492   0.669  19.971  0.00  0.00    +0.071 C 
BRANCH  55  56
ATOM     56  SD  MET A   2       7.142  -0.922  20.790  0.00  0.00    -0.164 S 
ATOM     57  CE  MET A   2       5.798  -1.477  19.712  0.00  0.00    +0.084 C 
ENDBRANCH  55  56
ENDBRANCH  54  55
ENDBRANCH  43  54
ENDBRANCH  39  43
ENDBRANCH  38  40
BRANCH  38  58
ATOM     58  CB  LEU A   3       8.904   3.820  24.632  0.00  0.00    +0.034 C 
BRANCH  58  59
ATOM     59  CG  LEU A   3       7.458   3.900  25.161  0.00  0.00    -0.015 C 
ATOM     60  CD2 LEU A   3       6.888   5.318  25.080  0.00  0.00    +0.007 C 
ATOM     61  CD1 LEU A   3       7.413   3.419  26.615  0.00  0.00    +0.007 C 
ENDBRANCH  58  59
ENDBRANCH  38  58
ENDBRANCH  34  38
ENDBRANCH   1  36
BRANCH   1  62
ATOM     62  CB  GLN A   4       8.939  -0.848  26.771  0.00  0.00    +0.041 C 
BRANCH  62  63
ATOM     63  CG  GLN A   4       7.513  -0.300  26.815  0.00  0.00    +0.098 C 
BRANCH  63  64
ATOM     64  CD  GLN A   4       6.464  -1.278  26.326  0.00  0.00    +0.211 C 
ATOM     65  OE1 GLN A   4       6.351  -2.408  26.788  0.00  0.00    -0.276 OA
ATOM     66  NE2 GLN A   4       5.698  -0.885  25.272  0.00  0.00    -0.329 N 
ATOM     67 HE21 GLN A   4       4.975  -1.530  24.977  0.00  0.00    +0.145 HD
ATOM     68 HE22 GLN A   4       5.632   0.070  24.952  0.00  0.00    +0.145 HD
ENDBRANCH  63  64
ENDBRANCH  62  63
ENDBRANCH   1  62
TORSDOF 28
ENDMDL
MODEL 14
REMARK VINA RESULT:      -5.5      2.731      7.369
REMARK  Name = PMLQSADA-mmff94.pdb
REMARK  33 active torsions:
REMARK  status: ('A' for Active; 'I' for Inactive)
REMARK    1  A    between atoms: _2  and  _3
REMARK    2  A    between atoms: _15  and  _16
REMARK    3  A    between atoms: _16  and  _17
REMARK    4  A    between atoms: _16  and  _19
REMARK    5  A    between atoms: _19  and  _20
REMARK    6  A    between atoms: _20  and  _21
REMARK    7  A    between atoms: _21  and  _22
REMARK    8  A    between atoms: _32  and  _33
REMARK    9  A    between atoms: _33  and  _34
REMARK   10  A    between atoms: _33  and  _36
REMARK   11  A    between atoms: _36  and  _37
REMARK   12  A    between atoms: _37  and  _38
REMARK   13  A    between atoms: _37  and  _39
REMARK   14  A    between atoms: _51  and  _52
REMARK   15  A    between atoms: _52  and  _53
REMARK   16  A    between atoms: _52  and  _55
REMARK   17  A    between atoms: _55  and  _56
REMARK   18  A    between atoms: _56  and  _57
REMARK   19  A    between atoms: _68  and  _69
REMARK   20  A    between atoms: _69  and  _70
REMARK   21  A    between atoms: _69  and  _72
REMARK   22  A    between atoms: _72  and  _73
REMARK   23  A    between atoms: _79  and  _80
REMARK   24  A    between atoms: _80  and  _81
REMARK   25  A    between atoms: _80  and  _83
REMARK   26  A    between atoms: _89  and  _90
REMARK   27  A    between atoms: _90  and  _91
REMARK   28  A    between atoms: _90  and  _93
REMARK   29  A    between atoms: _93  and  _94
REMARK   30  A    between atoms: _94  and  _95
REMARK   31  A    between atoms: _101  and  _102
REMARK   32  A    between atoms: _102  and  _103
REMARK   33  A    between atoms: _102  and  _105
REMARK                            x       y       z     vdW  Elec       q    Type
REMARK                         _______ _______ _______ _____ _____    ______ ____
ROOT
ATOM      1  CA  GLN A   4       6.552  -0.518  21.146  0.00  0.00    +0.159 C 
ENDROOT
BRANCH   1   2
ATOM      2  C   GLN A   4       6.431  -1.887  21.848  0.00  0.00    +0.234 C 
ATOM      3  N   SER A   5       5.862  -2.892  21.112  0.00  0.00    -0.301 N 
ATOM      4  H   SER A   5       5.580  -2.748  20.143  0.00  0.00    +0.150 HD
ATOM      5  O   GLN A   4       6.843  -2.068  22.995  0.00  0.00    -0.274 OA
BRANCH   3   6
ATOM      6  CA  SER A   5       5.814  -4.283  21.585  0.00  0.00    +0.184 C 
BRANCH   6   7
ATOM      7  C   SER A   5       5.051  -4.295  22.923  0.00  0.00    +0.236 C 
ATOM      8  O   SER A   5       3.900  -3.862  23.008  0.00  0.00    -0.274 OA
ATOM      9  N   ALA A   6       5.713  -4.858  23.989  0.00  0.00    -0.303 N 
ATOM     10  H   ALA A   6       6.671  -5.183  23.902  0.00  0.00    +0.149 HD
BRANCH   9  11
ATOM     11  CA  ALA A   6       5.116  -4.930  25.319  0.00  0.00    +0.156 C 
ATOM     12  CB  ALA A   6       4.733  -6.364  25.674  0.00  0.00    +0.038 C 
BRANCH  11  13
ATOM     13  C   ALA A   6       6.119  -4.365  26.349  0.00  0.00    +0.234 C 
ATOM     14  N   ASP A   7       7.232  -3.765  25.813  0.00  0.00    -0.302 N 
ATOM     15  H   ASP A   7       7.374  -3.716  24.804  0.00  0.00    +0.150 HD
ATOM     16  O   ALA A   6       5.955  -4.446  27.570  0.00  0.00    -0.274 OA
BRANCH  14  17
ATOM     17  CA  ASP A   7       8.221  -3.082  26.646  0.00  0.00    +0.165 C 
BRANCH  17  18
ATOM     18  C   ASP A   7       8.509  -1.710  26.014  0.00  0.00    +0.234 C 
ATOM     19  O   ASP A   7       8.002  -0.680  26.460  0.00  0.00    -0.274 OA
ATOM     20  N   ALA A   8       9.356  -1.725  24.934  0.00  0.00    -0.305 N 
ATOM     21  H   ALA A   8       9.676  -2.608  24.526  0.00  0.00    +0.149 HD
BRANCH  20  22
ATOM     22  CA  ALA A   8       9.697  -0.517  24.196  0.00  0.00    +0.133 C 
ATOM     23  CB  ALA A   8      10.830   0.269  24.844  0.00  0.00    +0.035 C 
BRANCH  22  24
ATOM     24  C   ALA A   8      10.118  -0.901  22.784  0.00  0.00    +0.245 C 
ATOM     25  O   ALA A   8      10.724  -1.934  22.510  0.00  0.00    -0.299 OA
ENDBRANCH  22  24
ENDBRANCH  20  22
ENDBRANCH  17  18
BRANCH  17  26
ATOM     26  CB  ASP A   7       9.506  -3.890  26.758  0.00  0.00    +0.089 C 
BRANCH  26  27
ATOM     27  CG  ASP A   7       9.510  -4.877  25.633  0.00  0.00    +0.025 C 
ATOM     28  OD1 ASP A   7       9.983  -4.629  24.534  0.00  0.00    -0.851 OA
BRANCH  27  29
ATOM     29  OD2 ASP A   7       9.038  -6.093  25.979  0.00  0.00    -0.526 OA
ATOM     30  HD2 ASP A   7       8.231  -6.069  26.543  0.00  0.00    +0.290 HD
ENDBRANCH  27  29
ENDBRANCH  26  27
ENDBRANCH  17  26
ENDBRANCH  14  17
ENDBRANCH  11  13
ENDBRANCH   9  11
ENDBRANCH   6   7
BRANCH   6  31
ATOM     31  CB  SER A   5       7.215  -4.889  21.728  0.00  0.00    +0.187 C 
BRANCH  31  32
ATOM     32  OG  SER A   5       7.157  -6.290  21.994  0.00  0.00    -0.393 OA
ATOM     33  H   SER A   5       6.230  -6.561  21.868  0.00  0.00    +0.209 HD
ENDBRANCH  31  32
ENDBRANCH   6  31
ENDBRANCH   3   6
ENDBRANCH   1   2
BRANCH   1  36
ATOM     34  C   LEU A   3       6.348   1.774  22.108  0.00  0.00    +0.234 C 
ATOM     35  O   LEU A   3       5.744   2.203  21.125  0.00  0.00    -0.274 OA
ATOM     36  N   GLN A   4       6.766   0.469  22.208  0.00  0.00    -0.302 N 
ATOM     37  H   GLN A   4       7.294   0.157  23.020  0.00  0.00    +0.150 HD
BRANCH  34  38
ATOM     38  CA  LEU A   3       6.657   2.662  23.336  0.00  0.00    +0.159 C 
BRANCH  38  40
ATOM     39  C   MET A   2       4.491   3.071  24.508  0.00  0.00    +0.234 C 
ATOM     40  N   LEU A   3       5.645   2.347  24.343  0.00  0.00    -0.302 N 
ATOM     41  H   LEU A   3       5.772   1.469  24.840  0.00  0.00    +0.150 HD
ATOM     42  O   MET A   2       4.229   4.080  23.854  0.00  0.00    -0.274 OA
BRANCH  39  43
ATOM     43  CA  MET A   2       3.505   2.501  25.547  0.00  0.00    +0.160 C 
BRANCH  43  46
ATOM     44  C   PRO A   1       3.913   0.564  27.048  0.00  0.00    +0.231 C 
ATOM     45  O   PRO A   1       2.858   0.016  26.730  0.00  0.00    -0.274 OA
ATOM     46  N   MET A   2       4.302   1.776  26.532  0.00  0.00    -0.303 N 
ATOM     47  H   MET A   2       5.192   2.191  26.797  0.00  0.00    +0.149 HD
BRANCH  44  53
ATOM     48  N   PRO A   1       6.112   0.790  28.153  0.00  0.00    -0.306 NA
ATOM     49  H   PRO A   1       5.916   1.643  27.615  0.00  0.00    +0.123 HD
ATOM     50  CD  PRO A   1       6.257   1.174  29.562  0.00  0.00    +0.081 C 
ATOM     51  CG  PRO A   1       4.859   1.112  30.138  0.00  0.00    +0.017 C 
ATOM     52  CB  PRO A   1       4.272  -0.105  29.449  0.00  0.00    +0.029 C 
ATOM     53  CA  PRO A   1       4.894  -0.060  28.059  0.00  0.00    +0.140 C 
ENDBRANCH  44  53
ENDBRANCH  43  46
BRANCH  43  54
ATOM     54  CB  MET A   2       2.714   3.665  26.163  0.00  0.00    +0.042 C 
BRANCH  54  55
ATOM     55  CG  MET A   2       3.228   4.074  27.541  0.00  0.00    +0.071 C 
BRANCH  55  56
ATOM     56  SD  MET A   2       4.393   5.467  27.392  0.00  0.00    -0.164 S 
ATOM     57  CE  MET A   2       5.845   4.670  28.121  0.00  0.00    +0.084 C 
ENDBRANCH  55  56
ENDBRANCH  54  55
ENDBRANCH  43  54
ENDBRANCH  39  43
ENDBRANCH  38  40
BRANCH  38  58
ATOM     58  CB  LEU A   3       8.086   2.363  23.824  0.00  0.00    +0.034 C 
BRANCH  58  59
ATOM     59  CG  LEU A   3       8.922   3.589  24.243  0.00  0.00    -0.015 C 
ATOM     60  CD2 LEU A   3       8.201   4.908  23.956  0.00  0.00    +0.007 C 
ATOM     61  CD1 LEU A   3      10.265   3.575  23.504  0.00  0.00    +0.007 C 
ENDBRANCH  58  59
ENDBRANCH  38  58
ENDBRANCH  34  38
ENDBRANCH   1  36
BRANCH   1  62
ATOM     62  CB  GLN A   4       7.720  -0.491  20.149  0.00  0.00    +0.041 C 
BRANCH  62  63
ATOM     63  CG  GLN A   4       7.463   0.384  18.923  0.00  0.00    +0.098 C 
BRANCH  63  64
ATOM     64  CD  GLN A   4       6.126   0.131  18.257  0.00  0.00    +0.211 C 
ATOM     65  OE1 GLN A   4       5.883  -0.899  17.637  0.00  0.00    -0.276 OA
ATOM     66  NE2 GLN A   4       5.218   1.144  18.291  0.00  0.00    -0.329 N 
ATOM     67 HE21 GLN A   4       4.314   0.952  17.877  0.00  0.00    +0.145 HD
ATOM     68 HE22 GLN A   4       5.291   1.942  18.906  0.00  0.00    +0.145 HD
ENDBRANCH  63  64
ENDBRANCH  62  63
ENDBRANCH   1  62
TORSDOF 28
ENDMDL
MODEL 15
REMARK VINA RESULT:      -5.5      2.932      8.720
REMARK  Name = PMLQSADA-mmff94.pdb
REMARK  33 active torsions:
REMARK  status: ('A' for Active; 'I' for Inactive)
REMARK    1  A    between atoms: _2  and  _3
REMARK    2  A    between atoms: _15  and  _16
REMARK    3  A    between atoms: _16  and  _17
REMARK    4  A    between atoms: _16  and  _19
REMARK    5  A    between atoms: _19  and  _20
REMARK    6  A    between atoms: _20  and  _21
REMARK    7  A    between atoms: _21  and  _22
REMARK    8  A    between atoms: _32  and  _33
REMARK    9  A    between atoms: _33  and  _34
REMARK   10  A    between atoms: _33  and  _36
REMARK   11  A    between atoms: _36  and  _37
REMARK   12  A    between atoms: _37  and  _38
REMARK   13  A    between atoms: _37  and  _39
REMARK   14  A    between atoms: _51  and  _52
REMARK   15  A    between atoms: _52  and  _53
REMARK   16  A    between atoms: _52  and  _55
REMARK   17  A    between atoms: _55  and  _56
REMARK   18  A    between atoms: _56  and  _57
REMARK   19  A    between atoms: _68  and  _69
REMARK   20  A    between atoms: _69  and  _70
REMARK   21  A    between atoms: _69  and  _72
REMARK   22  A    between atoms: _72  and  _73
REMARK   23  A    between atoms: _79  and  _80
REMARK   24  A    between atoms: _80  and  _81
REMARK   25  A    between atoms: _80  and  _83
REMARK   26  A    between atoms: _89  and  _90
REMARK   27  A    between atoms: _90  and  _91
REMARK   28  A    between atoms: _90  and  _93
REMARK   29  A    between atoms: _93  and  _94
REMARK   30  A    between atoms: _94  and  _95
REMARK   31  A    between atoms: _101  and  _102
REMARK   32  A    between atoms: _102  and  _103
REMARK   33  A    between atoms: _102  and  _105
REMARK                            x       y       z     vdW  Elec       q    Type
REMARK                         _______ _______ _______ _____ _____    ______ ____
ROOT
ATOM      1  CA  GLN A   4       6.958  -0.087  21.227  0.00  0.00    +0.159 C 
ENDROOT
BRANCH   1   2
ATOM      2  C   GLN A   4       7.174  -1.129  22.344  0.00  0.00    +0.234 C 
ATOM      3  N   SER A   5       6.372  -1.002  23.447  0.00  0.00    -0.301 N 
ATOM      4  H   SER A   5       5.646  -0.288  23.499  0.00  0.00    +0.150 HD
ATOM      5  O   GLN A   4       8.004  -2.032  22.238  0.00  0.00    -0.274 OA
BRANCH   3   6
ATOM      6  CA  SER A   5       6.354  -2.001  24.525  0.00  0.00    +0.184 C 
BRANCH   6   7
ATOM      7  C   SER A   5       5.495  -3.187  24.049  0.00  0.00    +0.236 C 
ATOM      8  O   SER A   5       4.263  -3.128  24.049  0.00  0.00    -0.274 OA
ATOM      9  N   ALA A   6       6.184  -4.284  23.585  0.00  0.00    -0.303 N 
ATOM     10  H   ALA A   6       7.198  -4.322  23.620  0.00  0.00    +0.149 HD
BRANCH   9  11
ATOM     11  CA  ALA A   6       5.500  -5.483  23.111  0.00  0.00    +0.156 C 
ATOM     12  CB  ALA A   6       6.392  -6.293  22.174  0.00  0.00    +0.038 C 
BRANCH  11  13
ATOM     13  C   ALA A   6       5.079  -6.334  24.330  0.00  0.00    +0.234 C 
ATOM     14  N   ASP A   7       5.419  -5.810  25.553  0.00  0.00    -0.302 N 
ATOM     15  H   ASP A   7       5.922  -4.926  25.631  0.00  0.00    +0.150 HD
ATOM     16  O   ALA A   6       4.490  -7.414  24.232  0.00  0.00    -0.274 OA
BRANCH  14  17
ATOM     17  CA  ASP A   7       4.995  -6.433  26.807  0.00  0.00    +0.165 C 
BRANCH  17  18
ATOM     18  C   ASP A   7       3.686  -5.762  27.253  0.00  0.00    +0.234 C 
ATOM     19  O   ASP A   7       2.658  -6.418  27.431  0.00  0.00    -0.274 OA
ATOM     20  N   ALA A   8       3.750  -4.402  27.430  0.00  0.00    -0.305 N 
ATOM     21  H   ALA A   8       4.590  -3.876  27.173  0.00  0.00    +0.149 HD
BRANCH  20  22
ATOM     22  CA  ALA A   8       2.587  -3.611  27.809  0.00  0.00    +0.133 C 
ATOM     23  CB  ALA A   8       2.944  -2.437  28.712  0.00  0.00    +0.035 C 
BRANCH  22  24
ATOM     24  C   ALA A   8       1.924  -3.072  26.550  0.00  0.00    +0.245 C 
ATOM     25  O   ALA A   8       2.031  -1.910  26.167  0.00  0.00    -0.299 OA
ENDBRANCH  22  24
ENDBRANCH  20  22
ENDBRANCH  17  18
BRANCH  17  26
ATOM     26  CB  ASP A   7       6.058  -6.283  27.887  0.00  0.00    +0.089 C 
BRANCH  26  27
ATOM     27  CG  ASP A   7       7.102  -5.350  27.359  0.00  0.00    +0.025 C 
ATOM     28  OD1 ASP A   7       7.010  -4.135  27.445  0.00  0.00    -0.851 OA
BRANCH  27  29
ATOM     29  OD2 ASP A   7       8.193  -5.978  26.874  0.00  0.00    -0.526 OA
ATOM     30  HD2 ASP A   7       8.870  -5.374  26.488  0.00  0.00    +0.290 HD
ENDBRANCH  27  29
ENDBRANCH  26  27
ENDBRANCH  17  26
ENDBRANCH  14  17
ENDBRANCH  11  13
ENDBRANCH   9  11
ENDBRANCH   6   7
BRANCH   6  31
ATOM     31  CB  SER A   5       5.831  -1.417  25.841  0.00  0.00    +0.187 C 
BRANCH  31  32
ATOM     32  OG  SER A   5       4.610  -0.702  25.650  0.00  0.00    -0.393 OA
ATOM     33  H   SER A   5       3.957  -1.095  26.257  0.00  0.00    +0.209 HD
ENDBRANCH  31  32
ENDBRANCH   6  31
ENDBRANCH   3   6
ENDBRANCH   1   2
BRANCH   1  36
ATOM     34  C   LEU A   3       6.341   2.312  21.520  0.00  0.00    +0.234 C 
ATOM     35  O   LEU A   3       5.444   2.251  20.678  0.00  0.00    -0.274 OA
ATOM     36  N   GLN A   4       7.114   1.227  21.856  0.00  0.00    -0.302 N 
ATOM     37  H   GLN A   4       7.870   1.321  22.531  0.00  0.00    +0.150 HD
BRANCH  34  38
ATOM     38  CA  LEU A   3       6.649   3.610  22.301  0.00  0.00    +0.159 C 
BRANCH  38  40
ATOM     39  C   MET A   2       4.893   2.993  23.966  0.00  0.00    +0.234 C 
ATOM     40  N   LEU A   3       5.467   3.900  23.111  0.00  0.00    -0.302 N 
ATOM     41  H   LEU A   3       5.159   4.870  23.114  0.00  0.00    +0.150 HD
ATOM     42  O   MET A   2       5.295   1.836  24.089  0.00  0.00    -0.274 OA
BRANCH  39  43
ATOM     43  CA  MET A   2       3.726   3.538  24.811  0.00  0.00    +0.160 C 
BRANCH  43  46
ATOM     44  C   PRO A   1       3.551   2.223  26.912  0.00  0.00    +0.231 C 
ATOM     45  O   PRO A   1       2.758   1.421  26.417  0.00  0.00    -0.274 OA
ATOM     46  N   MET A   2       4.063   3.286  26.210  0.00  0.00    -0.303 N 
ATOM     47  H   MET A   2       4.735   3.917  26.640  0.00  0.00    +0.149 HD
BRANCH  44  53
ATOM     48  N   PRO A   1       4.601   0.747  28.594  0.00  0.00    -0.306 NA
ATOM     49  H   PRO A   1       4.637   0.291  27.674  0.00  0.00    +0.123 HD
ATOM     50  CD  PRO A   1       5.981   0.928  29.057  0.00  0.00    +0.081 C 
ATOM     51  CG  PRO A   1       6.415   2.269  28.504  0.00  0.00    +0.017 C 
ATOM     52  CB  PRO A   1       5.156   3.105  28.639  0.00  0.00    +0.029 C 
ATOM     53  CA  PRO A   1       4.038   2.107  28.369  0.00  0.00    +0.140 C 
ENDBRANCH  44  53
ENDBRANCH  43  46
BRANCH  43  54
ATOM     54  CB  MET A   2       3.552   5.033  24.502  0.00  0.00    +0.042 C 
BRANCH  54  55
ATOM     55  CG  MET A   2       2.217   5.353  23.834  0.00  0.00    +0.071 C 
BRANCH  55  56
ATOM     56  SD  MET A   2       2.476   5.774  22.079  0.00  0.00    -0.164 S 
ATOM     57  CE  MET A   2       2.267   4.116  21.382  0.00  0.00    +0.084 C 
ENDBRANCH  55  56
ENDBRANCH  54  55
ENDBRANCH  43  54
ENDBRANCH  39  43
ENDBRANCH  38  40
BRANCH  38  58
ATOM     58  CB  LEU A   3       7.910   3.393  23.158  0.00  0.00    +0.034 C 
BRANCH  58  59
ATOM     59  CG  LEU A   3       8.311   4.568  24.070  0.00  0.00    -0.015 C 
ATOM     60  CD2 LEU A   3       9.788   4.939  23.924  0.00  0.00    +0.007 C 
ATOM     61  CD1 LEU A   3       8.022   4.210  25.532  0.00  0.00    +0.007 C 
ENDBRANCH  58  59
ENDBRANCH  38  58
ENDBRANCH  34  38
ENDBRANCH   1  36
BRANCH   1  62
ATOM     62  CB  GLN A   4       7.973  -0.256  20.086  0.00  0.00    +0.041 C 
BRANCH  62  63
ATOM     63  CG  GLN A   4       7.454   0.206  18.725  0.00  0.00    +0.098 C 
BRANCH  63  64
ATOM     64  CD  GLN A   4       6.101  -0.367  18.357  0.00  0.00    +0.211 C 
ATOM     65  OE1 GLN A   4       5.937  -1.555  18.099  0.00  0.00    -0.276 OA
ATOM     66  NE2 GLN A   4       5.072   0.514  18.228  0.00  0.00    -0.329 N 
ATOM     67 HE21 GLN A   4       4.164   0.118  18.019  0.00  0.00    +0.145 HD
ATOM     68 HE22 GLN A   4       5.100   1.463  18.571  0.00  0.00    +0.145 HD
ENDBRANCH  63  64
ENDBRANCH  62  63
ENDBRANCH   1  62
TORSDOF 28
ENDMDL
MODEL 16
REMARK VINA RESULT:      -5.4      2.915      7.271
REMARK  Name = PMLQSADA-mmff94.pdb
REMARK  33 active torsions:
REMARK  status: ('A' for Active; 'I' for Inactive)
REMARK    1  A    between atoms: _2  and  _3
REMARK    2  A    between atoms: _15  and  _16
REMARK    3  A    between atoms: _16  and  _17
REMARK    4  A    between atoms: _16  and  _19
REMARK    5  A    between atoms: _19  and  _20
REMARK    6  A    between atoms: _20  and  _21
REMARK    7  A    between atoms: _21  and  _22
REMARK    8  A    between atoms: _32  and  _33
REMARK    9  A    between atoms: _33  and  _34
REMARK   10  A    between atoms: _33  and  _36
REMARK   11  A    between atoms: _36  and  _37
REMARK   12  A    between atoms: _37  and  _38
REMARK   13  A    between atoms: _37  and  _39
REMARK   14  A    between atoms: _51  and  _52
REMARK   15  A    between atoms: _52  and  _53
REMARK   16  A    between atoms: _52  and  _55
REMARK   17  A    between atoms: _55  and  _56
REMARK   18  A    between atoms: _56  and  _57
REMARK   19  A    between atoms: _68  and  _69
REMARK   20  A    between atoms: _69  and  _70
REMARK   21  A    between atoms: _69  and  _72
REMARK   22  A    between atoms: _72  and  _73
REMARK   23  A    between atoms: _79  and  _80
REMARK   24  A    between atoms: _80  and  _81
REMARK   25  A    between atoms: _80  and  _83
REMARK   26  A    between atoms: _89  and  _90
REMARK   27  A    between atoms: _90  and  _91
REMARK   28  A    between atoms: _90  and  _93
REMARK   29  A    between atoms: _93  and  _94
REMARK   30  A    between atoms: _94  and  _95
REMARK   31  A    between atoms: _101  and  _102
REMARK   32  A    between atoms: _102  and  _103
REMARK   33  A    between atoms: _102  and  _105
REMARK                            x       y       z     vdW  Elec       q    Type
REMARK                         _______ _______ _______ _____ _____    ______ ____
ROOT
ATOM      1  CA  GLN A   4       4.980   3.746  22.285  0.00  0.00    +0.159 C 
ENDROOT
BRANCH   1   2
ATOM      2  C   GLN A   4       5.179   4.656  23.515  0.00  0.00    +0.234 C 
ATOM      3  N   SER A   5       5.095   4.042  24.737  0.00  0.00    -0.301 N 
ATOM      4  H   SER A   5       4.956   3.035  24.819  0.00  0.00    +0.150 HD
ATOM      5  O   GLN A   4       5.420   5.859  23.402  0.00  0.00    -0.274 OA
BRANCH   3   6
ATOM      6  CA  SER A   5       5.409   4.741  25.991  0.00  0.00    +0.184 C 
BRANCH   6   7
ATOM      7  C   SER A   5       6.414   3.875  26.771  0.00  0.00    +0.236 C 
ATOM      8  O   SER A   5       7.528   3.613  26.311  0.00  0.00    -0.274 OA
ATOM      9  N   ALA A   6       6.011   3.458  28.018  0.00  0.00    -0.303 N 
ATOM     10  H   ALA A   6       5.079   3.662  28.366  0.00  0.00    +0.149 HD
BRANCH   9  11
ATOM     11  CA  ALA A   6       6.857   2.623  28.866  0.00  0.00    +0.156 C 
ATOM     12  CB  ALA A   6       6.761   3.047  30.329  0.00  0.00    +0.038 C 
BRANCH  11  13
ATOM     13  C   ALA A   6       6.432   1.148  28.699  0.00  0.00    +0.234 C 
ATOM     14  N   ASP A   7       6.659   0.612  27.455  0.00  0.00    -0.302 N 
ATOM     15  H   ASP A   7       7.070   1.167  26.705  0.00  0.00    +0.150 HD
ATOM     16  O   ALA A   6       5.915   0.485  29.603  0.00  0.00    -0.274 OA
BRANCH  14  17
ATOM     17  CA  ASP A   7       6.420  -0.802  27.166  0.00  0.00    +0.165 C 
BRANCH  17  18
ATOM     18  C   ASP A   7       7.762  -1.444  26.781  0.00  0.00    +0.234 C 
ATOM     19  O   ASP A   7       8.833  -0.891  27.034  0.00  0.00    -0.274 OA
ATOM     20  N   ALA A   8       7.674  -2.656  26.142  0.00  0.00    -0.305 N 
ATOM     21  H   ALA A   8       6.768  -3.036  25.853  0.00  0.00    +0.149 HD
BRANCH  20  22
ATOM     22  CA  ALA A   8       8.851  -3.375  25.672  0.00  0.00    +0.133 C 
ATOM     23  CB  ALA A   8       9.173  -4.596  26.525  0.00  0.00    +0.035 C 
BRANCH  22  24
ATOM     24  C   ALA A   8       8.612  -3.833  24.240  0.00  0.00    +0.245 C 
ATOM     25  O   ALA A   8       8.706  -5.001  23.872  0.00  0.00    -0.299 OA
ENDBRANCH  22  24
ENDBRANCH  20  22
ENDBRANCH  17  18
BRANCH  17  26
ATOM     26  CB  ASP A   7       5.411  -0.974  26.038  0.00  0.00    +0.089 C 
BRANCH  26  27
ATOM     27  CG  ASP A   7       4.990   0.395  25.605  0.00  0.00    +0.025 C 
ATOM     28  OD1 ASP A   7       5.536   1.002  24.696  0.00  0.00    -0.851 OA
BRANCH  27  29
ATOM     29  OD2 ASP A   7       3.890   0.849  26.242  0.00  0.00    -0.526 OA
ATOM     30  HD2 ASP A   7       3.148   0.202  26.280  0.00  0.00    +0.290 HD
ENDBRANCH  27  29
ENDBRANCH  26  27
ENDBRANCH  17  26
ENDBRANCH  14  17
ENDBRANCH  11  13
ENDBRANCH   9  11
ENDBRANCH   6   7
BRANCH   6  31
ATOM     31  CB  SER A   5       4.150   5.029  26.818  0.00  0.00    +0.187 C 
BRANCH  31  32
ATOM     32  OG  SER A   5       3.270   3.906  26.843  0.00  0.00    -0.393 OA
ATOM     33  H   SER A   5       2.362   4.260  26.836  0.00  0.00    +0.209 HD
ENDBRANCH  31  32
ENDBRANCH   6  31
ENDBRANCH   3   6
ENDBRANCH   1   2
BRANCH   1  36
ATOM     34  C   LEU A   3       7.285   2.793  22.248  0.00  0.00    +0.234 C 
ATOM     35  O   LEU A   3       7.797   3.874  21.961  0.00  0.00    -0.274 OA
ATOM     36  N   GLN A   4       5.932   2.642  22.435  0.00  0.00    -0.302 N 
ATOM     37  H   GLN A   4       5.537   1.726  22.637  0.00  0.00    +0.150 HD
BRANCH  34  38
ATOM     38  CA  LEU A   3       8.127   1.514  22.461  0.00  0.00    +0.159 C 
BRANCH  38  40
ATOM     39  C   MET A   2       7.283  -0.820  22.177  0.00  0.00    +0.234 C 
ATOM     40  N   LEU A   3       7.473   0.452  21.697  0.00  0.00    -0.302 N 
ATOM     41  H   LEU A   3       7.035   0.739  20.824  0.00  0.00    +0.150 HD
ATOM     42  O   MET A   2       7.692  -1.192  23.276  0.00  0.00    -0.274 OA
BRANCH  39  43
ATOM     43  CA  MET A   2       6.470  -1.750  21.258  0.00  0.00    +0.160 C 
BRANCH  43  46
ATOM     44  C   PRO A   1       5.404  -3.861  22.023  0.00  0.00    +0.231 C 
ATOM     45  O   PRO A   1       6.014  -4.541  21.197  0.00  0.00    -0.274 OA
ATOM     46  N   MET A   2       5.556  -2.499  22.116  0.00  0.00    -0.303 N 
ATOM     47  H   MET A   2       5.056  -1.968  22.824  0.00  0.00    +0.149 HD
BRANCH  44  53
ATOM     48  N   PRO A   1       4.234  -5.923  22.720  0.00  0.00    -0.306 NA
ATOM     49  H   PRO A   1       4.929  -6.156  22.000  0.00  0.00    +0.123 HD
ATOM     50  CD  PRO A   1       4.588  -6.663  23.937  0.00  0.00    +0.081 C 
ATOM     51  CG  PRO A   1       5.543  -5.762  24.689  0.00  0.00    +0.017 C 
ATOM     52  CB  PRO A   1       4.957  -4.384  24.445  0.00  0.00    +0.029 C 
ATOM     53  CA  PRO A   1       4.411  -4.477  23.026  0.00  0.00    +0.140 C 
ENDBRANCH  44  53
ENDBRANCH  43  46
BRANCH  43  54
ATOM     54  CB  MET A   2       5.738  -0.894  20.214  0.00  0.00    +0.042 C 
BRANCH  54  55
ATOM     55  CG  MET A   2       6.303  -1.057  18.804  0.00  0.00    +0.071 C 
BRANCH  55  56
ATOM     56  SD  MET A   2       6.075   0.481  17.852  0.00  0.00    -0.164 S 
ATOM     57  CE  MET A   2       5.172   1.428  19.104  0.00  0.00    +0.084 C 
ENDBRANCH  55  56
ENDBRANCH  54  55
ENDBRANCH  43  54
ENDBRANCH  39  43
ENDBRANCH  38  40
BRANCH  38  58
ATOM     58  CB  LEU A   3       9.568   1.777  21.987  0.00  0.00    +0.034 C 
BRANCH  58  59
ATOM     59  CG  LEU A   3      10.630   1.884  23.099  0.00  0.00    -0.015 C 
ATOM     60  CD2 LEU A   3      10.232   1.113  24.359  0.00  0.00    +0.007 C 
ATOM     61  CD1 LEU A   3      10.856   3.358  23.457  0.00  0.00    +0.007 C 
ENDBRANCH  58  59
ENDBRANCH  38  58
ENDBRANCH  34  38
ENDBRANCH   1  36
BRANCH   1  62
ATOM     62  CB  GLN A   4       3.545   3.206  22.202  0.00  0.00    +0.041 C 
BRANCH  62  63
ATOM     63  CG  GLN A   4       2.657   3.962  21.215  0.00  0.00    +0.098 C 
BRANCH  63  64
ATOM     64  CD  GLN A   4       2.229   3.137  20.019  0.00  0.00    +0.211 C 
ATOM     65  OE1 GLN A   4       1.776   2.002  20.129  0.00  0.00    -0.276 OA
ATOM     66  NE2 GLN A   4       2.455   3.671  18.787  0.00  0.00    -0.329 N 
ATOM     67 HE21 GLN A   4       2.131   3.129  17.996  0.00  0.00    +0.145 HD
ATOM     68 HE22 GLN A   4       2.674   4.644  18.630  0.00  0.00    +0.145 HD
ENDBRANCH  63  64
ENDBRANCH  62  63
ENDBRANCH   1  62
TORSDOF 28
ENDMDL
MODEL 17
REMARK VINA RESULT:      -5.4      2.692      8.700
REMARK  Name = PMLQSADA-mmff94.pdb
REMARK  33 active torsions:
REMARK  status: ('A' for Active; 'I' for Inactive)
REMARK    1  A    between atoms: _2  and  _3
REMARK    2  A    between atoms: _15  and  _16
REMARK    3  A    between atoms: _16  and  _17
REMARK    4  A    between atoms: _16  and  _19
REMARK    5  A    between atoms: _19  and  _20
REMARK    6  A    between atoms: _20  and  _21
REMARK    7  A    between atoms: _21  and  _22
REMARK    8  A    between atoms: _32  and  _33
REMARK    9  A    between atoms: _33  and  _34
REMARK   10  A    between atoms: _33  and  _36
REMARK   11  A    between atoms: _36  and  _37
REMARK   12  A    between atoms: _37  and  _38
REMARK   13  A    between atoms: _37  and  _39
REMARK   14  A    between atoms: _51  and  _52
REMARK   15  A    between atoms: _52  and  _53
REMARK   16  A    between atoms: _52  and  _55
REMARK   17  A    between atoms: _55  and  _56
REMARK   18  A    between atoms: _56  and  _57
REMARK   19  A    between atoms: _68  and  _69
REMARK   20  A    between atoms: _69  and  _70
REMARK   21  A    between atoms: _69  and  _72
REMARK   22  A    between atoms: _72  and  _73
REMARK   23  A    between atoms: _79  and  _80
REMARK   24  A    between atoms: _80  and  _81
REMARK   25  A    between atoms: _80  and  _83
REMARK   26  A    between atoms: _89  and  _90
REMARK   27  A    between atoms: _90  and  _91
REMARK   28  A    between atoms: _90  and  _93
REMARK   29  A    between atoms: _93  and  _94
REMARK   30  A    between atoms: _94  and  _95
REMARK   31  A    between atoms: _101  and  _102
REMARK   32  A    between atoms: _102  and  _103
REMARK   33  A    between atoms: _102  and  _105
REMARK                            x       y       z     vdW  Elec       q    Type
REMARK                         _______ _______ _______ _____ _____    ______ ____
ROOT
ATOM      1  CA  GLN A   4       9.425  -0.672  24.302  0.00  0.00    +0.159 C 
ENDROOT
BRANCH   1   2
ATOM      2  C   GLN A   4       8.774  -0.988  25.664  0.00  0.00    +0.234 C 
ATOM      3  N   SER A   5       7.530  -1.562  25.617  0.00  0.00    -0.301 N 
ATOM      4  H   SER A   5       7.089  -1.805  24.730  0.00  0.00    +0.150 HD
ATOM      5  O   GLN A   4       9.348  -0.757  26.729  0.00  0.00    -0.274 OA
BRANCH   3   6
ATOM      6  CA  SER A   5       6.848  -2.057  26.820  0.00  0.00    +0.184 C 
BRANCH   6   7
ATOM      7  C   SER A   5       6.975  -3.592  26.832  0.00  0.00    +0.236 C 
ATOM      8  O   SER A   5       7.723  -4.180  26.048  0.00  0.00    -0.274 OA
ATOM      9  N   ALA A   6       6.244  -4.250  27.794  0.00  0.00    -0.303 N 
ATOM     10  H   ALA A   6       5.613  -3.748  28.412  0.00  0.00    +0.149 HD
BRANCH   9  11
ATOM     11  CA  ALA A   6       6.261  -5.704  27.917  0.00  0.00    +0.156 C 
ATOM     12  CB  ALA A   6       5.941  -6.140  29.345  0.00  0.00    +0.038 C 
BRANCH  11  13
ATOM     13  C   ALA A   6       5.238  -6.302  26.926  0.00  0.00    +0.234 C 
ATOM     14  N   ASP A   7       4.828  -5.453  25.927  0.00  0.00    -0.302 N 
ATOM     15  H   ASP A   7       5.177  -4.497  25.867  0.00  0.00    +0.150 HD
ATOM     16  O   ALA A   6       4.800  -7.453  27.015  0.00  0.00    -0.274 OA
BRANCH  14  17
ATOM     17  CA  ASP A   7       3.952  -5.898  24.844  0.00  0.00    +0.165 C 
BRANCH  17  18
ATOM     18  C   ASP A   7       4.692  -5.685  23.514  0.00  0.00    +0.234 C 
ATOM     19  O   ASP A   7       4.203  -6.046  22.443  0.00  0.00    -0.274 OA
ATOM     20  N   ALA A   8       5.919  -5.076  23.613  0.00  0.00    -0.305 N 
ATOM     21  H   ALA A   8       6.341  -4.884  24.526  0.00  0.00    +0.149 HD
BRANCH  20  22
ATOM     22  CA  ALA A   8       6.767  -4.840  22.453  0.00  0.00    +0.133 C 
ATOM     23  CB  ALA A   8       6.890  -6.065  21.555  0.00  0.00    +0.035 C 
BRANCH  22  24
ATOM     24  C   ALA A   8       6.182  -3.697  21.636  0.00  0.00    +0.245 C 
ATOM     25  O   ALA A   8       5.259  -2.984  22.023  0.00  0.00    -0.299 OA
ENDBRANCH  22  24
ENDBRANCH  20  22
ENDBRANCH  17  18
BRANCH  17  26
ATOM     26  CB  ASP A   7       2.637  -5.130  24.843  0.00  0.00    +0.089 C 
BRANCH  26  27
ATOM     27  CG  ASP A   7       2.905  -3.787  25.447  0.00  0.00    +0.025 C 
ATOM     28  OD1 ASP A   7       2.556  -3.487  26.578  0.00  0.00    -0.851 OA
BRANCH  27  29
ATOM     29  OD2 ASP A   7       3.655  -2.983  24.665  0.00  0.00    -0.526 OA
ATOM     30  HD2 ASP A   7       4.556  -3.333  24.470  0.00  0.00    +0.290 HD
ENDBRANCH  27  29
ENDBRANCH  26  27
ENDBRANCH  17  26
ENDBRANCH  14  17
ENDBRANCH  11  13
ENDBRANCH   9  11
ENDBRANCH   6   7
BRANCH   6  31
ATOM     31  CB  SER A   5       5.382  -1.611  26.873  0.00  0.00    +0.187 C 
BRANCH  31  32
ATOM     32  OG  SER A   5       4.796  -1.879  28.146  0.00  0.00    -0.393 OA
ATOM     33  H   SER A   5       5.144  -1.210  28.762  0.00  0.00    +0.209 HD
ENDBRANCH  31  32
ENDBRANCH   6  31
ENDBRANCH   3   6
ENDBRANCH   1   2
BRANCH   1  36
ATOM     34  C   LEU A   3       8.314  -0.621  22.069  0.00  0.00    +0.234 C 
ATOM     35  O   LEU A   3       9.208  -1.279  21.537  0.00  0.00    -0.274 OA
ATOM     36  N   GLN A   4       8.332  -0.292  23.403  0.00  0.00    -0.302 N 
ATOM     37  H   GLN A   4       7.594   0.284  23.803  0.00  0.00    +0.150 HD
BRANCH  34  38
ATOM     38  CA  LEU A   3       7.071  -0.139  21.287  0.00  0.00    +0.159 C 
BRANCH  38  40
ATOM     39  C   MET A   2       6.470   2.104  22.205  0.00  0.00    +0.234 C 
ATOM     40  N   LEU A   3       6.326   0.740  22.188  0.00  0.00    -0.302 N 
ATOM     41  H   LEU A   3       5.581   0.298  22.722  0.00  0.00    +0.150 HD
ATOM     42  O   MET A   2       7.277   2.705  21.497  0.00  0.00    -0.274 OA
BRANCH  39  43
ATOM     43  CA  MET A   2       5.507   2.851  23.148  0.00  0.00    +0.160 C 
BRANCH  43  46
ATOM     44  C   PRO A   1       3.609   4.124  22.171  0.00  0.00    +0.231 C 
ATOM     45  O   PRO A   1       4.095   5.211  22.485  0.00  0.00    -0.274 OA
ATOM     46  N   MET A   2       4.220   2.929  22.462  0.00  0.00    -0.303 N 
ATOM     47  H   MET A   2       3.805   2.048  22.168  0.00  0.00    +0.149 HD
BRANCH  44  53
ATOM     48  N   PRO A   1       2.240   4.982  20.302  0.00  0.00    -0.306 NA
ATOM     49  H   PRO A   1       3.184   5.383  20.241  0.00  0.00    +0.123 HD
ATOM     50  CD  PRO A   1       2.002   4.214  19.075  0.00  0.00    +0.081 C 
ATOM     51  CG  PRO A   1       2.519   2.822  19.368  0.00  0.00    +0.017 C 
ATOM     52  CB  PRO A   1       2.114   2.619  20.816  0.00  0.00    +0.029 C 
ATOM     53  CA  PRO A   1       2.267   4.006  21.425  0.00  0.00    +0.140 C 
ENDBRANCH  44  53
ENDBRANCH  43  46
BRANCH  43  54
ATOM     54  CB  MET A   2       5.428   2.086  24.477  0.00  0.00    +0.042 C 
BRANCH  54  55
ATOM     55  CG  MET A   2       4.865   2.929  25.619  0.00  0.00    +0.071 C 
BRANCH  55  56
ATOM     56  SD  MET A   2       5.771   4.506  25.745  0.00  0.00    -0.164 S 
ATOM     57  CE  MET A   2       7.369   3.844  26.277  0.00  0.00    +0.084 C 
ENDBRANCH  55  56
ENDBRANCH  54  55
ENDBRANCH  43  54
ENDBRANCH  39  43
ENDBRANCH  38  40
BRANCH  38  58
ATOM     58  CB  LEU A   3       7.531   0.584  20.008  0.00  0.00    +0.034 C 
BRANCH  58  59
ATOM     59  CG  LEU A   3       6.792   0.192  18.714  0.00  0.00    -0.015 C 
ATOM     60  CD2 LEU A   3       5.925   1.332  18.173  0.00  0.00    +0.007 C 
ATOM     61  CD1 LEU A   3       5.911  -1.035  18.972  0.00  0.00    +0.007 C 
ENDBRANCH  58  59
ENDBRANCH  38  58
ENDBRANCH  34  38
ENDBRANCH   1  36
BRANCH   1  62
ATOM     62  CB  GLN A   4      10.447   0.470  24.411  0.00  0.00    +0.041 C 
BRANCH  62  63
ATOM     63  CG  GLN A   4       9.845   1.859  24.207  0.00  0.00    +0.098 C 
BRANCH  63  64
ATOM     64  CD  GLN A   4      10.520   2.668  23.119  0.00  0.00    +0.211 C 
ATOM     65  OE1 GLN A   4      11.235   3.634  23.363  0.00  0.00    -0.276 OA
ATOM     66  NE2 GLN A   4      10.225   2.338  21.831  0.00  0.00    -0.329 N 
ATOM     67 HE21 GLN A   4      10.710   2.859  21.111  0.00  0.00    +0.145 HD
ATOM     68 HE22 GLN A   4       9.778   1.473  21.563  0.00  0.00    +0.145 HD
ENDBRANCH  63  64
ENDBRANCH  62  63
ENDBRANCH   1  62
TORSDOF 28
ENDMDL
MODEL 18
REMARK VINA RESULT:      -5.4      2.449      7.368
REMARK  Name = PMLQSADA-mmff94.pdb
REMARK  33 active torsions:
REMARK  status: ('A' for Active; 'I' for Inactive)
REMARK    1  A    between atoms: _2  and  _3
REMARK    2  A    between atoms: _15  and  _16
REMARK    3  A    between atoms: _16  and  _17
REMARK    4  A    between atoms: _16  and  _19
REMARK    5  A    between atoms: _19  and  _20
REMARK    6  A    between atoms: _20  and  _21
REMARK    7  A    between atoms: _21  and  _22
REMARK    8  A    between atoms: _32  and  _33
REMARK    9  A    between atoms: _33  and  _34
REMARK   10  A    between atoms: _33  and  _36
REMARK   11  A    between atoms: _36  and  _37
REMARK   12  A    between atoms: _37  and  _38
REMARK   13  A    between atoms: _37  and  _39
REMARK   14  A    between atoms: _51  and  _52
REMARK   15  A    between atoms: _52  and  _53
REMARK   16  A    between atoms: _52  and  _55
REMARK   17  A    between atoms: _55  and  _56
REMARK   18  A    between atoms: _56  and  _57
REMARK   19  A    between atoms: _68  and  _69
REMARK   20  A    between atoms: _69  and  _70
REMARK   21  A    between atoms: _69  and  _72
REMARK   22  A    between atoms: _72  and  _73
REMARK   23  A    between atoms: _79  and  _80
REMARK   24  A    between atoms: _80  and  _81
REMARK   25  A    between atoms: _80  and  _83
REMARK   26  A    between atoms: _89  and  _90
REMARK   27  A    between atoms: _90  and  _91
REMARK   28  A    between atoms: _90  and  _93
REMARK   29  A    between atoms: _93  and  _94
REMARK   30  A    between atoms: _94  and  _95
REMARK   31  A    between atoms: _101  and  _102
REMARK   32  A    between atoms: _102  and  _103
REMARK   33  A    between atoms: _102  and  _105
REMARK                            x       y       z     vdW  Elec       q    Type
REMARK                         _______ _______ _______ _____ _____    ______ ____
ROOT
ATOM      1  CA  GLN A   4       8.235   1.547  21.242  0.00  0.00    +0.159 C 
ENDROOT
BRANCH   1   2
ATOM      2  C   GLN A   4       7.653   0.491  20.279  0.00  0.00    +0.234 C 
ATOM      3  N   SER A   5       6.297   0.308  20.335  0.00  0.00    -0.301 N 
ATOM      4  H   SER A   5       5.708   0.873  20.947  0.00  0.00    +0.150 HD
ATOM      5  O   GLN A   4       8.366  -0.133  19.492  0.00  0.00    -0.274 OA
BRANCH   3   6
ATOM      6  CA  SER A   5       5.580  -0.549  19.381  0.00  0.00    +0.184 C 
BRANCH   6   7
ATOM      7  C   SER A   5       5.653  -1.995  19.905  0.00  0.00    +0.236 C 
ATOM      8  O   SER A   5       5.578  -2.959  19.139  0.00  0.00    -0.274 OA
ATOM      9  N   ALA A   6       5.852  -2.137  21.258  0.00  0.00    -0.303 N 
ATOM     10  H   ALA A   6       5.884  -1.329  21.873  0.00  0.00    +0.149 HD
BRANCH   9  11
ATOM     11  CA  ALA A   6       5.933  -3.448  21.895  0.00  0.00    +0.156 C 
ATOM     12  CB  ALA A   6       7.384  -3.894  22.056  0.00  0.00    +0.038 C 
BRANCH  11  13
ATOM     13  C   ALA A   6       5.230  -3.381  23.268  0.00  0.00    +0.234 C 
ATOM     14  N   ASP A   7       4.518  -4.504  23.615  0.00  0.00    -0.302 N 
ATOM     15  H   ASP A   7       4.460  -5.309  22.991  0.00  0.00    +0.150 HD
ATOM     16  O   ALA A   6       5.283  -2.396  24.011  0.00  0.00    -0.274 OA
BRANCH  14  17
ATOM     17  CA  ASP A   7       3.889  -4.647  24.927  0.00  0.00    +0.165 C 
BRANCH  17  18
ATOM     18  C   ASP A   7       4.922  -5.261  25.886  0.00  0.00    +0.234 C 
ATOM     19  O   ASP A   7       5.047  -6.481  25.998  0.00  0.00    -0.274 OA
ATOM     20  N   ALA A   8       5.675  -4.359  26.597  0.00  0.00    -0.305 N 
ATOM     21  H   ALA A   8       5.473  -3.356  26.558  0.00  0.00    +0.149 HD
BRANCH  20  22
ATOM     22  CA  ALA A   8       6.667  -4.776  27.579  0.00  0.00    +0.133 C 
ATOM     23  CB  ALA A   8       6.120  -5.796  28.570  0.00  0.00    +0.035 C 
BRANCH  22  24
ATOM     24  C   ALA A   8       7.854  -5.394  26.852  0.00  0.00    +0.245 C 
ATOM     25  O   ALA A   8       8.639  -4.751  26.160  0.00  0.00    -0.299 OA
ENDBRANCH  22  24
ENDBRANCH  20  22
ENDBRANCH  17  18
BRANCH  17  26
ATOM     26  CB  ASP A   7       2.649  -5.528  24.855  0.00  0.00    +0.089 C 
BRANCH  26  27
ATOM     27  CG  ASP A   7       2.668  -6.215  23.525  0.00  0.00    +0.025 C 
ATOM     28  OD1 ASP A   7       1.993  -5.843  22.577  0.00  0.00    -0.851 OA
BRANCH  27  29
ATOM     29  OD2 ASP A   7       3.572  -7.213  23.445  0.00  0.00    -0.526 OA
ATOM     30  HD2 ASP A   7       3.673  -7.736  24.274  0.00  0.00    +0.290 HD
ENDBRANCH  27  29
ENDBRANCH  26  27
ENDBRANCH  17  26
ENDBRANCH  14  17
ENDBRANCH  11  13
ENDBRANCH   9  11
ENDBRANCH   6   7
BRANCH   6  31
ATOM     31  CB  SER A   5       6.151  -0.432  17.963  0.00  0.00    +0.187 C 
BRANCH  31  32
ATOM     32  OG  SER A   5       6.026   0.896  17.454  0.00  0.00    -0.393 OA
ATOM     33  H   SER A   5       6.402   0.888  16.555  0.00  0.00    +0.209 HD
ENDBRANCH  31  32
ENDBRANCH   6  31
ENDBRANCH   3   6
ENDBRANCH   1   2
BRANCH   1  36
ATOM     34  C   LEU A   3       6.797   3.242  22.374  0.00  0.00    +0.234 C 
ATOM     35  O   LEU A   3       7.374   4.186  21.835  0.00  0.00    -0.274 OA
ATOM     36  N   GLN A   4       7.139   1.932  22.136  0.00  0.00    -0.302 N 
ATOM     37  H   GLN A   4       6.665   1.177  22.626  0.00  0.00    +0.150 HD
BRANCH  34  38
ATOM     38  CA  LEU A   3       5.608   3.447  23.340  0.00  0.00    +0.159 C 
BRANCH  38  40
ATOM     39  C   MET A   2       5.560   2.311  25.563  0.00  0.00    +0.234 C 
ATOM     40  N   LEU A   3       6.120   3.208  24.689  0.00  0.00    -0.302 N 
ATOM     41  H   LEU A   3       7.010   3.648  24.910  0.00  0.00    +0.150 HD
ATOM     42  O   MET A   2       4.545   1.663  25.306  0.00  0.00    -0.274 OA
BRANCH  39  43
ATOM     43  CA  MET A   2       6.323   2.127  26.889  0.00  0.00    +0.160 C 
BRANCH  43  46
ATOM     44  C   PRO A   1       6.860  -0.296  27.014  0.00  0.00    +0.231 C 
ATOM     45  O   PRO A   1       5.758  -0.579  27.485  0.00  0.00    -0.274 OA
ATOM     46  N   MET A   2       7.223   0.992  26.704  0.00  0.00    -0.303 N 
ATOM     47  H   MET A   2       8.131   1.191  26.294  0.00  0.00    +0.149 HD
BRANCH  44  53
ATOM     48  N   PRO A   1       7.686  -1.970  25.394  0.00  0.00    -0.306 NA
ATOM     49  H   PRO A   1       6.939  -1.417  24.957  0.00  0.00    +0.123 HD
ATOM     50  CD  PRO A   1       8.907  -1.774  24.604  0.00  0.00    +0.081 C 
ATOM     51  CG  PRO A   1       9.577  -0.555  25.200  0.00  0.00    +0.017 C 
ATOM     52  CB  PRO A   1       9.318  -0.729  26.685  0.00  0.00    +0.029 C 
ATOM     53  CA  PRO A   1       7.934  -1.363  26.731  0.00  0.00    +0.140 C 
ENDBRANCH  44  53
ENDBRANCH  43  46
BRANCH  43  54
ATOM     54  CB  MET A   2       7.068   3.431  27.212  0.00  0.00    +0.042 C 
BRANCH  54  55
ATOM     55  CG  MET A   2       6.392   4.250  28.309  0.00  0.00    +0.071 C 
BRANCH  55  56
ATOM     56  SD  MET A   2       5.830   3.157  29.655  0.00  0.00    -0.164 S 
ATOM     57  CE  MET A   2       7.454   2.655  30.276  0.00  0.00    +0.084 C 
ENDBRANCH  55  56
ENDBRANCH  54  55
ENDBRANCH  43  54
ENDBRANCH  39  43
ENDBRANCH  38  40
BRANCH  38  58
ATOM     58  CB  LEU A   3       5.059   4.875  23.164  0.00  0.00    +0.034 C 
BRANCH  58  59
ATOM     59  CG  LEU A   3       3.601   4.977  22.673  0.00  0.00    -0.015 C 
ATOM     60  CD2 LEU A   3       2.741   5.854  23.586  0.00  0.00    +0.007 C 
ATOM     61  CD1 LEU A   3       2.985   3.576  22.589  0.00  0.00    +0.007 C 
ENDBRANCH  58  59
ENDBRANCH  38  58
ENDBRANCH  34  38
ENDBRANCH   1  36
BRANCH   1  62
ATOM     62  CB  GLN A   4       9.414   0.990  22.053  0.00  0.00    +0.041 C 
BRANCH  62  63
ATOM     63  CG  GLN A   4      10.430   2.051  22.474  0.00  0.00    +0.098 C 
BRANCH  63  64
ATOM     64  CD  GLN A   4       9.947   2.954  23.590  0.00  0.00    +0.211 C 
ATOM     65  OE1 GLN A   4       9.288   2.537  24.537  0.00  0.00    -0.276 OA
ATOM     66  NE2 GLN A   4      10.194   4.286  23.457  0.00  0.00    -0.329 N 
ATOM     67 HE21 GLN A   4       9.901   4.877  24.226  0.00  0.00    +0.145 HD
ATOM     68 HE22 GLN A   4      10.854   4.670  22.796  0.00  0.00    +0.145 HD
ENDBRANCH  63  64
ENDBRANCH  62  63
ENDBRANCH   1  62
TORSDOF 28
ENDMDL
MODEL 19
REMARK VINA RESULT:      -5.3      2.693      8.558
REMARK  Name = PMLQSADA-mmff94.pdb
REMARK  33 active torsions:
REMARK  status: ('A' for Active; 'I' for Inactive)
REMARK    1  A    between atoms: _2  and  _3
REMARK    2  A    between atoms: _15  and  _16
REMARK    3  A    between atoms: _16  and  _17
REMARK    4  A    between atoms: _16  and  _19
REMARK    5  A    between atoms: _19  and  _20
REMARK    6  A    between atoms: _20  and  _21
REMARK    7  A    between atoms: _21  and  _22
REMARK    8  A    between atoms: _32  and  _33
REMARK    9  A    between atoms: _33  and  _34
REMARK   10  A    between atoms: _33  and  _36
REMARK   11  A    between atoms: _36  and  _37
REMARK   12  A    between atoms: _37  and  _38
REMARK   13  A    between atoms: _37  and  _39
REMARK   14  A    between atoms: _51  and  _52
REMARK   15  A    between atoms: _52  and  _53
REMARK   16  A    between atoms: _52  and  _55
REMARK   17  A    between atoms: _55  and  _56
REMARK   18  A    between atoms: _56  and  _57
REMARK   19  A    between atoms: _68  and  _69
REMARK   20  A    between atoms: _69  and  _70
REMARK   21  A    between atoms: _69  and  _72
REMARK   22  A    between atoms: _72  and  _73
REMARK   23  A    between atoms: _79  and  _80
REMARK   24  A    between atoms: _80  and  _81
REMARK   25  A    between atoms: _80  and  _83
REMARK   26  A    between atoms: _89  and  _90
REMARK   27  A    between atoms: _90  and  _91
REMARK   28  A    between atoms: _90  and  _93
REMARK   29  A    between atoms: _93  and  _94
REMARK   30  A    between atoms: _94  and  _95
REMARK   31  A    between atoms: _101  and  _102
REMARK   32  A    between atoms: _102  and  _103
REMARK   33  A    between atoms: _102  and  _105
REMARK                            x       y       z     vdW  Elec       q    Type
REMARK                         _______ _______ _______ _____ _____    ______ ____
ROOT
ATOM      1  CA  GLN A   4       7.506  -1.020  27.240  0.00  0.00    +0.159 C 
ENDROOT
BRANCH   1   2
ATOM      2  C   GLN A   4       8.505  -1.523  26.177  0.00  0.00    +0.234 C 
ATOM      3  N   SER A   5       8.585  -2.882  26.022  0.00  0.00    -0.301 N 
ATOM      4  H   SER A   5       7.983  -3.514  26.549  0.00  0.00    +0.150 HD
ATOM      5  O   GLN A   4       9.173  -0.746  25.494  0.00  0.00    -0.274 OA
BRANCH   3   6
ATOM      6  CA  SER A   5       9.375  -3.506  24.952  0.00  0.00    +0.184 C 
BRANCH   6   7
ATOM      7  C   SER A   5       8.469  -3.629  23.713  0.00  0.00    +0.236 C 
ATOM      8  O   SER A   5       8.516  -2.803  22.798  0.00  0.00    -0.274 OA
ATOM      9  N   ALA A   6       7.649  -4.733  23.673  0.00  0.00    -0.303 N 
ATOM     10  H   ALA A   6       7.607  -5.386  24.449  0.00  0.00    +0.149 HD
BRANCH   9  11
ATOM     11  CA  ALA A   6       6.731  -4.975  22.564  0.00  0.00    +0.156 C 
ATOM     12  CB  ALA A   6       6.639  -6.463  22.239  0.00  0.00    +0.038 C 
BRANCH  11  13
ATOM     13  C   ALA A   6       5.341  -4.412  22.933  0.00  0.00    +0.234 C 
ATOM     14  N   ASP A   7       4.680  -5.095  23.925  0.00  0.00    -0.302 N 
ATOM     15  H   ASP A   7       5.090  -5.918  24.367  0.00  0.00    +0.150 HD
ATOM     16  O   ALA A   6       4.838  -3.429  22.381  0.00  0.00    -0.274 OA
BRANCH  14  17
ATOM     17  CA  ASP A   7       3.406  -4.627  24.470  0.00  0.00    +0.165 C 
BRANCH  17  18
ATOM     18  C   ASP A   7       3.529  -4.586  26.002  0.00  0.00    +0.234 C 
ATOM     19  O   ASP A   7       2.855  -3.809  26.679  0.00  0.00    -0.274 OA
ATOM     20  N   ALA A   8       4.435  -5.464  26.544  0.00  0.00    -0.305 N 
ATOM     21  H   ALA A   8       5.053  -6.021  25.947  0.00  0.00    +0.149 HD
BRANCH  20  22
ATOM     22  CA  ALA A   8       4.703  -5.522  27.975  0.00  0.00    +0.133 C 
ATOM     23  CB  ALA A   8       4.045  -6.720  28.649  0.00  0.00    +0.035 C 
BRANCH  22  24
ATOM     24  C   ALA A   8       6.207  -5.607  28.194  0.00  0.00    +0.245 C 
ATOM     25  O   ALA A   8       7.016  -4.842  27.677  0.00  0.00    -0.299 OA
ENDBRANCH  22  24
ENDBRANCH  20  22
ENDBRANCH  17  18
BRANCH  17  26
ATOM     26  CB  ASP A   7       2.258  -5.539  24.058  0.00  0.00    +0.089 C 
BRANCH  26  27
ATOM     27  CG  ASP A   7       2.855  -6.848  23.648  0.00  0.00    +0.025 C 
ATOM     28  OD1 ASP A   7       3.433  -7.588  24.431  0.00  0.00    -0.851 OA
BRANCH  27  29
ATOM     29  OD2 ASP A   7       2.606  -7.178  22.364  0.00  0.00    -0.526 OA
ATOM     30  HD2 ASP A   7       3.369  -7.043  21.755  0.00  0.00    +0.290 HD
ENDBRANCH  27  29
ENDBRANCH  26  27
ENDBRANCH  17  26
ENDBRANCH  14  17
ENDBRANCH  11  13
ENDBRANCH   9  11
ENDBRANCH   6   7
BRANCH   6  31
ATOM     31  CB  SER A   5       9.942  -4.865  25.375  0.00  0.00    +0.187 C 
BRANCH  31  32
ATOM     32  OG  SER A   5       8.944  -5.685  25.984  0.00  0.00    -0.393 OA
ATOM     33  H   SER A   5       8.120  -5.540  25.486  0.00  0.00    +0.209 HD
ENDBRANCH  31  32
ENDBRANCH   6  31
ENDBRANCH   3   6
ENDBRANCH   1   2
BRANCH   1  36
ATOM     34  C   LEU A   3       6.969   1.257  28.105  0.00  0.00    +0.234 C 
ATOM     35  O   LEU A   3       6.490   0.817  29.150  0.00  0.00    -0.274 OA
ATOM     36  N   GLN A   4       7.493   0.441  27.131  0.00  0.00    -0.302 N 
ATOM     37  H   GLN A   4       7.849   0.836  26.263  0.00  0.00    +0.150 HD
BRANCH  34  38
ATOM     38  CA  LEU A   3       7.056   2.772  27.813  0.00  0.00    +0.159 C 
BRANCH  38  40
ATOM     39  C   MET A   2       7.939   3.992  25.821  0.00  0.00    +0.234 C 
ATOM     40  N   LEU A   3       7.311   2.907  26.380  0.00  0.00    -0.302 N 
ATOM     41  H   LEU A   3       7.118   2.083  25.815  0.00  0.00    +0.150 HD
ATOM     42  O   MET A   2       8.299   4.972  26.473  0.00  0.00    -0.274 OA
BRANCH  39  43
ATOM     43  CA  MET A   2       8.212   3.882  24.309  0.00  0.00    +0.160 C 
BRANCH  43  46
ATOM     44  C   PRO A   1       6.214   3.490  22.885  0.00  0.00    +0.231 C 
ATOM     45  O   PRO A   1       6.482   2.299  22.729  0.00  0.00    -0.274 OA
ATOM     46  N   MET A   2       7.003   4.335  23.627  0.00  0.00    -0.303 N 
ATOM     47  H   MET A   2       6.742   5.309  23.757  0.00  0.00    +0.149 HD
BRANCH  44  53
ATOM     48  N   PRO A   1       4.106   3.087  21.659  0.00  0.00    -0.306 NA
ATOM     49  H   PRO A   1       4.509   2.186  21.943  0.00  0.00    +0.123 HD
ATOM     50  CD  PRO A   1       2.786   3.205  22.290  0.00  0.00    +0.081 C 
ATOM     51  CG  PRO A   1       3.044   3.843  23.638  0.00  0.00    +0.017 C 
ATOM     52  CB  PRO A   1       4.139   4.846  23.325  0.00  0.00    +0.029 C 
ATOM     53  CA  PRO A   1       4.967   4.143  22.258  0.00  0.00    +0.140 C 
ENDBRANCH  44  53
ENDBRANCH  43  46
BRANCH  43  54
ATOM     54  CB  MET A   2       9.442   4.737  23.968  0.00  0.00    +0.042 C 
BRANCH  54  55
ATOM     55  CG  MET A   2      10.643   3.905  23.522  0.00  0.00    +0.071 C 
BRANCH  55  56
ATOM     56  SD  MET A   2      10.297   2.130  23.745  0.00  0.00    -0.164 S 
ATOM     57  CE  MET A   2       9.989   1.706  22.012  0.00  0.00    +0.084 C 
ENDBRANCH  55  56
ENDBRANCH  54  55
ENDBRANCH  43  54
ENDBRANCH  39  43
ENDBRANCH  38  40
BRANCH  38  58
ATOM     58  CB  LEU A   3       5.738   3.443  28.242  0.00  0.00    +0.034 C 
BRANCH  58  59
ATOM     59  CG  LEU A   3       4.669   3.586  27.141  0.00  0.00    -0.015 C 
ATOM     60  CD2 LEU A   3       4.075   4.995  27.087  0.00  0.00    +0.007 C 
ATOM     61  CD1 LEU A   3       3.545   2.571  27.378  0.00  0.00    +0.007 C 
ENDBRANCH  58  59
ENDBRANCH  38  58
ENDBRANCH  34  38
ENDBRANCH   1  36
BRANCH   1  62
ATOM     62  CB  GLN A   4       6.096  -1.584  27.008  0.00  0.00    +0.041 C 
BRANCH  62  63
ATOM     63  CG  GLN A   4       5.780  -1.874  25.542  0.00  0.00    +0.098 C 
BRANCH  63  64
ATOM     64  CD  GLN A   4       5.713  -0.636  24.672  0.00  0.00    +0.211 C 
ATOM     65  OE1 GLN A   4       5.139   0.388  25.027  0.00  0.00    -0.276 OA
ATOM     66  NE2 GLN A   4       6.241  -0.731  23.421  0.00  0.00    -0.329 N 
ATOM     67 HE21 GLN A   4       6.225   0.113  22.861  0.00  0.00    +0.145 HD
ATOM     68 HE22 GLN A   4       6.854  -1.477  23.126  0.00  0.00    +0.145 HD
ENDBRANCH  63  64
ENDBRANCH  62  63
ENDBRANCH   1  62
TORSDOF 28
ENDMDL
MODEL 20
REMARK VINA RESULT:      -5.3      2.497      8.215
REMARK  Name = PMLQSADA-mmff94.pdb
REMARK  33 active torsions:
REMARK  status: ('A' for Active; 'I' for Inactive)
REMARK    1  A    between atoms: _2  and  _3
REMARK    2  A    between atoms: _15  and  _16
REMARK    3  A    between atoms: _16  and  _17
REMARK    4  A    between atoms: _16  and  _19
REMARK    5  A    between atoms: _19  and  _20
REMARK    6  A    between atoms: _20  and  _21
REMARK    7  A    between atoms: _21  and  _22
REMARK    8  A    between atoms: _32  and  _33
REMARK    9  A    between atoms: _33  and  _34
REMARK   10  A    between atoms: _33  and  _36
REMARK   11  A    between atoms: _36  and  _37
REMARK   12  A    between atoms: _37  and  _38
REMARK   13  A    between atoms: _37  and  _39
REMARK   14  A    between atoms: _51  and  _52
REMARK   15  A    between atoms: _52  and  _53
REMARK   16  A    between atoms: _52  and  _55
REMARK   17  A    between atoms: _55  and  _56
REMARK   18  A    between atoms: _56  and  _57
REMARK   19  A    between atoms: _68  and  _69
REMARK   20  A    between atoms: _69  and  _70
REMARK   21  A    between atoms: _69  and  _72
REMARK   22  A    between atoms: _72  and  _73
REMARK   23  A    between atoms: _79  and  _80
REMARK   24  A    between atoms: _80  and  _81
REMARK   25  A    between atoms: _80  and  _83
REMARK   26  A    between atoms: _89  and  _90
REMARK   27  A    between atoms: _90  and  _91
REMARK   28  A    between atoms: _90  and  _93
REMARK   29  A    between atoms: _93  and  _94
REMARK   30  A    between atoms: _94  and  _95
REMARK   31  A    between atoms: _101  and  _102
REMARK   32  A    between atoms: _102  and  _103
REMARK   33  A    between atoms: _102  and  _105
REMARK                            x       y       z     vdW  Elec       q    Type
REMARK                         _______ _______ _______ _____ _____    ______ ____
ROOT
ATOM      1  CA  GLN A   4       6.875  -0.724  27.031  0.00  0.00    +0.159 C 
ENDROOT
BRANCH   1   2
ATOM      2  C   GLN A   4       8.142  -1.366  26.426  0.00  0.00    +0.234 C 
ATOM      3  N   SER A   5       8.117  -2.728  26.285  0.00  0.00    -0.301 N 
ATOM      4  H   SER A   5       7.289  -3.273  26.524  0.00  0.00    +0.150 HD
ATOM      5  O   GLN A   4       9.108  -0.689  26.073  0.00  0.00    -0.274 OA
BRANCH   3   6
ATOM      6  CA  SER A   5       9.181  -3.466  25.591  0.00  0.00    +0.184 C 
BRANCH   6   7
ATOM      7  C   SER A   5       8.781  -3.580  24.109  0.00  0.00    +0.236 C 
ATOM      8  O   SER A   5       9.394  -2.970  23.229  0.00  0.00    -0.274 OA
ATOM      9  N   ALA A   6       7.738  -4.433  23.830  0.00  0.00    -0.303 N 
ATOM     10  H   ALA A   6       7.230  -4.904  24.572  0.00  0.00    +0.149 HD
BRANCH   9  11
ATOM     11  CA  ALA A   6       7.246  -4.634  22.470  0.00  0.00    +0.156 C 
ATOM     12  CB  ALA A   6       7.449  -6.077  22.017  0.00  0.00    +0.038 C 
BRANCH  11  13
ATOM     13  C   ALA A   6       5.750  -4.255  22.419  0.00  0.00    +0.234 C 
ATOM     14  N   ASP A   7       4.963  -4.851  23.374  0.00  0.00    -0.302 N 
ATOM     15  H   ASP A   7       5.355  -5.503  24.053  0.00  0.00    +0.150 HD
ATOM     16  O   ALA A   6       5.274  -3.482  21.581  0.00  0.00    -0.274 OA
BRANCH  14  17
ATOM     17  CA  ASP A   7       3.549  -4.513  23.535  0.00  0.00    +0.165 C 
BRANCH  17  18
ATOM     18  C   ASP A   7       3.330  -4.055  24.986  0.00  0.00    +0.234 C 
ATOM     19  O   ASP A   7       2.548  -3.145  25.259  0.00  0.00    -0.274 OA
ATOM     20  N   ALA A   8       4.065  -4.725  25.932  0.00  0.00    -0.305 N 
ATOM     21  H   ALA A   8       4.782  -5.404  25.661  0.00  0.00    +0.149 HD
BRANCH  20  22
ATOM     22  CA  ALA A   8       4.007  -4.385  27.347  0.00  0.00    +0.133 C 
ATOM     23  CB  ALA A   8       3.292  -5.443  28.178  0.00  0.00    +0.035 C 
BRANCH  22  24
ATOM     24  C   ALA A   8       5.425  -4.227  27.878  0.00  0.00    +0.245 C 
ATOM     25  O   ALA A   8       6.318  -5.049  27.691  0.00  0.00    -0.299 OA
ENDBRANCH  22  24
ENDBRANCH  20  22
ENDBRANCH  17  18
BRANCH  17  26
ATOM     26  CB  ASP A   7       2.655  -5.704  23.218  0.00  0.00    +0.089 C 
BRANCH  26  27
ATOM     27  CG  ASP A   7       2.972  -6.776  24.212  0.00  0.00    +0.025 C 
ATOM     28  OD1 ASP A   7       2.220  -7.078  25.126  0.00  0.00    -0.851 OA
BRANCH  27  29
ATOM     29  OD2 ASP A   7       4.115  -7.442  23.943  0.00  0.00    -0.526 OA
ATOM     30  HD2 ASP A   7       4.856  -7.240  24.560  0.00  0.00    +0.290 HD
ENDBRANCH  27  29
ENDBRANCH  26  27
ENDBRANCH  17  26
ENDBRANCH  14  17
ENDBRANCH  11  13
ENDBRANCH   9  11
ENDBRANCH   6   7
BRANCH   6  31
ATOM     31  CB  SER A   5       9.428  -4.843  26.217  0.00  0.00    +0.187 C 
BRANCH  31  32
ATOM     32  OG  SER A   5      10.155  -5.699  25.336  0.00  0.00    -0.393 OA
ATOM     33  H   SER A   5      11.089  -5.426  25.387  0.00  0.00    +0.209 HD
ENDBRANCH  31  32
ENDBRANCH   6  31
ENDBRANCH   3   6
ENDBRANCH   1   2
BRANCH   1  36
ATOM     34  C   LEU A   3       6.811   1.588  27.962  0.00  0.00    +0.234 C 
ATOM     35  O   LEU A   3       6.435   1.202  29.069  0.00  0.00    -0.274 OA
ATOM     36  N   GLN A   4       7.059   0.725  26.922  0.00  0.00    -0.302 N 
ATOM     37  H   GLN A   4       7.333   1.082  26.010  0.00  0.00    +0.150 HD
BRANCH  34  38
ATOM     38  CA  LEU A   3       7.072   3.081  27.657  0.00  0.00    +0.159 C 
BRANCH  38  40
ATOM     39  C   MET A   2       7.922   4.162  25.573  0.00  0.00    +0.234 C 
ATOM     40  N   LEU A   3       7.177   3.198  26.204  0.00  0.00    -0.302 N 
ATOM     41  H   LEU A   3       6.771   2.435  25.667  0.00  0.00    +0.150 HD
ATOM     42  O   MET A   2       8.530   5.046  26.177  0.00  0.00    -0.274 OA
BRANCH  39  43
ATOM     43  CA  MET A   2       7.992   4.037  24.040  0.00  0.00    +0.160 C 
BRANCH  43  46
ATOM     44  C   PRO A   1       9.310   2.085  23.247  0.00  0.00    +0.231 C 
ATOM     45  O   PRO A   1      10.303   2.774  23.009  0.00  0.00    -0.274 OA
ATOM     46  N   MET A   2       8.143   2.616  23.739  0.00  0.00    -0.303 N 
ATOM     47  H   MET A   2       7.348   2.017  23.947  0.00  0.00    +0.149 HD
BRANCH  44  53
ATOM     48  N   PRO A   1       7.900   0.056  23.195  0.00  0.00    -0.306 NA
ATOM     49  H   PRO A   1       7.299   0.883  23.300  0.00  0.00    +0.123 HD
ATOM     50  CD  PRO A   1       7.522  -0.616  21.947  0.00  0.00    +0.081 C 
ATOM     51  CG  PRO A   1       8.371   0.031  20.873  0.00  0.00    +0.017 C 
ATOM     52  CB  PRO A   1       9.697   0.238  21.581  0.00  0.00    +0.029 C 
ATOM     53  CA  PRO A   1       9.288   0.563  23.011  0.00  0.00    +0.140 C 
ENDBRANCH  44  53
ENDBRANCH  43  46
BRANCH  43  54
ATOM     54  CB  MET A   2       6.713   4.639  23.439  0.00  0.00    +0.042 C 
BRANCH  54  55
ATOM     55  CG  MET A   2       5.879   3.621  22.664  0.00  0.00    +0.071 C 
BRANCH  55  56
ATOM     56  SD  MET A   2       4.356   3.223  23.583  0.00  0.00    -0.164 S 
ATOM     57  CE  MET A   2       3.526   4.823  23.412  0.00  0.00    +0.084 C 
ENDBRANCH  55  56
ENDBRANCH  54  55
ENDBRANCH  43  54
ENDBRANCH  39  43
ENDBRANCH  38  40
BRANCH  38  58
ATOM     58  CB  LEU A   3       5.917   3.921  28.233  0.00  0.00    +0.034 C 
BRANCH  58  59
ATOM     59  CG  LEU A   3       4.638   3.981  27.374  0.00  0.00    -0.015 C 
ATOM     60  CD2 LEU A   3       4.209   5.418  27.070  0.00  0.00    +0.007 C 
ATOM     61  CD1 LEU A   3       3.497   3.254  28.095  0.00  0.00    +0.007 C 
ENDBRANCH  58  59
ENDBRANCH  38  58
ENDBRANCH  34  38
ENDBRANCH   1  36
BRANCH   1  62
ATOM     62  CB  GLN A   4       5.605  -1.159  26.284  0.00  0.00    +0.041 C 
BRANCH  62  63
ATOM     63  CG  GLN A   4       4.424  -0.208  26.470  0.00  0.00    +0.098 C 
BRANCH  63  64
ATOM     64  CD  GLN A   4       3.485  -0.606  27.590  0.00  0.00    +0.211 C 
ATOM     65  OE1 GLN A   4       2.274  -0.710  27.429  0.00  0.00    -0.276 OA
ATOM     66  NE2 GLN A   4       4.030  -0.756  28.829  0.00  0.00    -0.329 N 
ATOM     67 HE21 GLN A   4       3.402  -1.059  29.563  0.00  0.00    +0.145 HD
ATOM     68 HE22 GLN A   4       5.022  -0.838  28.998  0.00  0.00    +0.145 HD
ENDBRANCH  63  64
ENDBRANCH  62  63
ENDBRANCH   1  62
TORSDOF 28
ENDMDL
