REMARK  Name = PMLQSADA-mmff94.pdb
REMARK  33 active torsions:
REMARK  status: ('A' for Active; 'I' for Inactive)
REMARK    1  A    between atoms: _2  and  _3
REMARK    2  A    between atoms: _15  and  _16
REMARK    3  A    between atoms: _16  and  _17
REMARK    4  A    between atoms: _16  and  _19
REMARK    5  A    between atoms: _19  and  _20
REMARK    6  A    between atoms: _20  and  _21
REMARK    7  A    between atoms: _21  and  _22
REMARK    8  A    between atoms: _32  and  _33
REMARK    9  A    between atoms: _33  and  _34
REMARK   10  A    between atoms: _33  and  _36
REMARK   11  A    between atoms: _36  and  _37
REMARK   12  A    between atoms: _37  and  _38
REMARK   13  A    between atoms: _37  and  _39
REMARK   14  A    between atoms: _51  and  _52
REMARK   15  A    between atoms: _52  and  _53
REMARK   16  A    between atoms: _52  and  _55
REMARK   17  A    between atoms: _55  and  _56
REMARK   18  A    between atoms: _56  and  _57
REMARK   19  A    between atoms: _68  and  _69
REMARK   20  A    between atoms: _69  and  _70
REMARK   21  A    between atoms: _69  and  _72
REMARK   22  A    between atoms: _72  and  _73
REMARK   23  A    between atoms: _79  and  _80
REMARK   24  A    between atoms: _80  and  _81
REMARK   25  A    between atoms: _80  and  _83
REMARK   26  A    between atoms: _89  and  _90
REMARK   27  A    between atoms: _90  and  _91
REMARK   28  A    between atoms: _90  and  _93
REMARK   29  A    between atoms: _93  and  _94
REMARK   30  A    between atoms: _94  and  _95
REMARK   31  A    between atoms: _101  and  _102
REMARK   32  A    between atoms: _102  and  _103
REMARK   33  A    between atoms: _102  and  _105
REMARK                            x       y       z     vdW  Elec       q    Type
REMARK                         _______ _______ _______ _____ _____    ______ ____
ROOT
ATOM      1  CA  GLN A   4       2.785  11.149  -0.262  0.00  0.00    +0.159 C 
ENDROOT
BRANCH   1   2
ATOM      2  C   GLN A   4       3.346  12.085  -1.353  0.00  0.00    +0.234 C 
ATOM      3  N   SER A   5       2.979  13.402  -1.262  0.00  0.00    -0.301 N 
ATOM      4  H   SER A   5       2.407  13.743  -0.490  0.00  0.00    +0.150 HD
ATOM      5  O   GLN A   4       4.096  11.674  -2.239  0.00  0.00    -0.274 OA
BRANCH   3   6
ATOM      6  CA  SER A   5       3.549  14.438  -2.134  0.00  0.00    +0.184 C 
BRANCH   6   7
ATOM      7  C   SER A   5       3.357  15.796  -1.434  0.00  0.00    +0.236 C 
ATOM      8  O   SER A   5       2.689  15.897  -0.402  0.00  0.00    -0.274 OA
ATOM      9  N   ALA A   6       4.010  16.865  -2.002  0.00  0.00    -0.303 N 
ATOM     10  H   ALA A   6       4.532  16.764  -2.867  0.00  0.00    +0.149 HD
BRANCH   9  11
ATOM     11  CA  ALA A   6       3.911  18.213  -1.451  0.00  0.00    +0.156 C 
ATOM     12  CB  ALA A   6       4.781  18.365  -0.206  0.00  0.00    +0.038 C 
BRANCH  11  13
ATOM     13  C   ALA A   6       4.333  19.229  -2.535  0.00  0.00    +0.234 C 
ATOM     14  N   ASP A   7       4.132  20.548  -2.209  0.00  0.00    -0.302 N 
ATOM     15  H   ASP A   7       3.722  20.817  -1.315  0.00  0.00    +0.150 HD
ATOM     16  O   ALA A   6       4.808  18.899  -3.626  0.00  0.00    -0.274 OA
BRANCH  14  17
ATOM     17  CA  ASP A   7       4.581  21.637  -3.076  0.00  0.00    +0.165 C 
BRANCH  17  18
ATOM     18  C   ASP A   7       4.449  22.954  -2.294  0.00  0.00    +0.234 C 
ATOM     19  O   ASP A   7       3.796  23.018  -1.252  0.00  0.00    -0.274 OA
ATOM     20  N   ALA A   8       5.100  24.032  -2.841  0.00  0.00    -0.305 N 
ATOM     21  H   ALA A   8       5.545  23.969  -3.761  0.00  0.00    +0.149 HD
BRANCH  20  22
ATOM     22  CA  ALA A   8       5.039  25.361  -2.248  0.00  0.00    +0.133 C 
ATOM     23  CB  ALA A   8       5.796  25.452  -0.929  0.00  0.00    +0.035 C 
BRANCH  22  24
ATOM     24  C   ALA A   8       5.638  26.366  -3.222  0.00  0.00    +0.245 C 
ATOM     25  O   ALA A   8       6.381  26.057  -4.150  0.00  0.00    -0.299 OA
ENDBRANCH  22  24
ENDBRANCH  20  22
ENDBRANCH  17  18
BRANCH  17  26
ATOM     26  CB  ASP A   7       3.760  21.701  -4.357  0.00  0.00    +0.089 C 
BRANCH  26  27
ATOM     27  CG  ASP A   7       4.709  21.980  -5.480  0.00  0.00    +0.025 C 
ATOM     28  OD1 ASP A   7       4.978  23.111  -5.856  0.00  0.00    -0.851 OA
BRANCH  27  29
ATOM     29  OD2 ASP A   7       5.313  20.875  -5.965  0.00  0.00    -0.526 OA
ATOM     30  HD2 ASP A   7       5.079  20.044  -5.490  0.00  0.00    +0.290 HD
ENDBRANCH  27  29
ENDBRANCH  26  27
ENDBRANCH  17  26
ENDBRANCH  14  17
ENDBRANCH  11  13
ENDBRANCH   9  11
ENDBRANCH   6   7
BRANCH   6  31
ATOM     31  CB  SER A   5       2.914  14.427  -3.529  0.00  0.00    +0.187 C 
BRANCH  31  32
ATOM     32  OG  SER A   5       1.493  14.543  -3.461  0.00  0.00    -0.393 OA
ATOM     33  H   SER A   5       1.178  13.810  -2.902  0.00  0.00    +0.209 HD
ENDBRANCH  31  32
ENDBRANCH   6  31
ENDBRANCH   3   6
ENDBRANCH   1   2
BRANCH   1  36
ATOM     34  C   LEU A   3       2.070   8.760  -0.311  0.00  0.00    +0.234 C 
ATOM     35  O   LEU A   3       1.328   8.895   0.662  0.00  0.00    -0.274 OA
ATOM     36  N   GLN A   4       2.803   9.799  -0.832  0.00  0.00    -0.302 N 
ATOM     37  H   GLN A   4       3.434   9.644  -1.615  0.00  0.00    +0.150 HD
BRANCH  34  38
ATOM     38  CA  LEU A   3       2.213   7.413  -1.056  0.00  0.00    +0.159 C 
BRANCH  38  40
ATOM     39  C   MET A   2       2.152   5.095  -0.129  0.00  0.00    +0.234 C 
ATOM     40  N   LEU A   3       1.682   6.384  -0.163  0.00  0.00    -0.302 N 
ATOM     41  H   LEU A   3       1.024   6.706   0.543  0.00  0.00    +0.150 HD
ATOM     42  O   MET A   2       3.030   4.678  -0.884  0.00  0.00    -0.274 OA
BRANCH  39  43
ATOM     43  CA  MET A   2       1.535   4.203   0.965  0.00  0.00    +0.160 C 
BRANCH  43  46
ATOM     44  C   PRO A   1       0.711   1.862   0.841  0.00  0.00    +0.231 C 
ATOM     45  O   PRO A   1      -0.232   2.088   1.600  0.00  0.00    -0.274 OA
ATOM     46  N   MET A   2       1.623   2.826   0.487  0.00  0.00    -0.303 N 
ATOM     47  H   MET A   2       2.377   2.614  -0.161  0.00  0.00    +0.149 HD
BRANCH  44  53
ATOM     48  N   PRO A   1       0.365  -0.571   1.103  0.00  0.00    -0.306 NA
ATOM     49  H   PRO A   1      -0.168  -0.074   1.827  0.00  0.00    +0.123 HD
ATOM     50  CD  PRO A   1      -0.590  -1.329   0.287  0.00  0.00    +0.081 C 
ATOM     51  CG  PRO A   1      -1.024  -0.377  -0.807  0.00  0.00    +0.017 C 
ATOM     52  CB  PRO A   1       0.261   0.362  -1.130  0.00  0.00    +0.029 C 
ATOM     53  CA  PRO A   1       0.955   0.473   0.221  0.00  0.00    +0.140 C 
ENDBRANCH  44  53
ENDBRANCH  43  46
BRANCH  43  54
ATOM     54  CB  MET A   2       2.305   4.428   2.275  0.00  0.00    +0.042 C 
BRANCH  54  55
ATOM     55  CG  MET A   2       1.763   3.598   3.437  0.00  0.00    +0.071 C 
BRANCH  55  56
ATOM     56  SD  MET A   2       2.661   4.000   4.971  0.00  0.00    -0.164 S 
ATOM     57  CE  MET A   2       1.986   2.686   6.018  0.00  0.00    +0.084 C 
ENDBRANCH  55  56
ENDBRANCH  54  55
ENDBRANCH  43  54
ENDBRANCH  39  43
ENDBRANCH  38  40
BRANCH  38  58
ATOM     58  CB  LEU A   3       1.443   7.491  -2.387  0.00  0.00    +0.034 C 
BRANCH  58  59
ATOM     59  CG  LEU A   3       1.652   6.308  -3.353  0.00  0.00    -0.015 C 
ATOM     60  CD2 LEU A   3       3.093   6.220  -3.860  0.00  0.00    +0.007 C 
ATOM     61  CD1 LEU A   3       0.702   6.443  -4.548  0.00  0.00    +0.007 C 
ENDBRANCH  58  59
ENDBRANCH  38  58
ENDBRANCH  34  38
ENDBRANCH   1  36
BRANCH   1  62
ATOM     62  CB  GLN A   4       3.630  11.198   1.020  0.00  0.00    +0.041 C 
BRANCH  62  63
ATOM     63  CG  GLN A   4       3.565  12.538   1.751  0.00  0.00    +0.098 C 
BRANCH  63  64
ATOM     64  CD  GLN A   4       3.998  12.468   3.201  0.00  0.00    +0.211 C 
ATOM     65  OE1 GLN A   4       3.425  13.089   4.090  0.00  0.00    -0.276 OA
ATOM     66  NE2 GLN A   4       5.123  11.753   3.476  0.00  0.00    -0.329 N 
ATOM     67 HE21 GLN A   4       5.383  11.681   4.452  0.00  0.00    +0.145 HD
ATOM     68 HE22 GLN A   4       5.545  11.102   2.830  0.00  0.00    +0.145 HD
ENDBRANCH  63  64
ENDBRANCH  62  63
ENDBRANCH   1  62
TORSDOF 28
