REMARK  Name = TRLQSLEN-mmff94.pdb
REMARK  42 active torsions:
REMARK  status: ('A' for Active; 'I' for Inactive)
REMARK    1  A    between atoms: _1  and  _2
REMARK    2  A    between atoms: _2  and  _3
REMARK    3  A    between atoms: _2  and  _5
REMARK    4  A    between atoms: _5  and  _6
REMARK    5  A    between atoms: _5  and  _7
REMARK    6  A    between atoms: _15  and  _16
REMARK    7  A    between atoms: _16  and  _17
REMARK    8  A    between atoms: _16  and  _19
REMARK    9  A    between atoms: _19  and  _20
REMARK   10  A    between atoms: _20  and  _21
REMARK   11  A    between atoms: _21  and  _22
REMARK   12  A    between atoms: _39  and  _40
REMARK   13  A    between atoms: _40  and  _41
REMARK   14  A    between atoms: _40  and  _43
REMARK   15  A    between atoms: _43  and  _44
REMARK   16  A    between atoms: _44  and  _45
REMARK   17  A    between atoms: _44  and  _46
REMARK   18  A    between atoms: _58  and  _59
REMARK   19  A    between atoms: _59  and  _60
REMARK   20  A    between atoms: _59  and  _62
REMARK   21  A    between atoms: _62  and  _63
REMARK   22  A    between atoms: _63  and  _64
REMARK   23  A    between atoms: _75  and  _76
REMARK   24  A    between atoms: _76  and  _77
REMARK   25  A    between atoms: _76  and  _79
REMARK   26  A    between atoms: _79  and  _80
REMARK   27  A    between atoms: _86  and  _87
REMARK   28  A    between atoms: _87  and  _88
REMARK   29  A    between atoms: _87  and  _90
REMARK   30  A    between atoms: _90  and  _91
REMARK   31  A    between atoms: _91  and  _92
REMARK   32  A    between atoms: _91  and  _93
REMARK   33  A    between atoms: _105  and  _106
REMARK   34  A    between atoms: _106  and  _107
REMARK   35  A    between atoms: _106  and  _109
REMARK   36  A    between atoms: _109  and  _110
REMARK   37  A    between atoms: _110  and  _111
REMARK   38  A    between atoms: _111  and  _112
REMARK   39  A    between atoms: _120  and  _121
REMARK   40  A    between atoms: _121  and  _122
REMARK   41  A    between atoms: _121  and  _124
REMARK   42  A    between atoms: _124  and  _125
REMARK                            x       y       z     vdW  Elec       q    Type
REMARK                         _______ _______ _______ _____ _____    ______ ____
ROOT
ATOM      1  CA  GLN A   4       9.794   3.753  -1.124  0.00  0.00    +0.159 C 
ENDROOT
BRANCH   1   3
ATOM      2  C   LEU A   3       7.550   2.787  -0.653  0.00  0.00    +0.234 C 
ATOM      3  N   GLN A   4       8.344   3.862  -0.968  0.00  0.00    -0.302 N 
ATOM      4  H   GLN A   4       7.927   4.758  -1.216  0.00  0.00    +0.150 HD
ATOM      5  O   LEU A   3       8.008   1.659  -0.458  0.00  0.00    -0.274 OA
BRANCH   2   6
ATOM      6  CA  LEU A   3       6.039   3.095  -0.573  0.00  0.00    +0.159 C 
BRANCH   6   9
ATOM      7  C   ARG A   2       4.293   1.464  -1.271  0.00  0.00    +0.234 C 
ATOM      8  O   ARG A   2       3.770   2.231  -2.077  0.00  0.00    -0.274 OA
ATOM      9  N   LEU A   3       5.357   1.809  -0.477  0.00  0.00    -0.302 N 
ATOM     10  H   LEU A   3       5.808   1.107   0.101  0.00  0.00    +0.150 HD
BRANCH   7  11
ATOM     11  CA  ARG A   2       3.818   0.011  -1.106  0.00  0.00    +0.159 C 
BRANCH  11  13
ATOM     12  C   THR A   1       1.589  -0.888  -0.511  0.00  0.00    +0.233 C 
ATOM     13  N   ARG A   2       2.363   0.034  -1.182  0.00  0.00    -0.303 N 
ATOM     14  H   ARG A   2       1.936   0.777  -1.728  0.00  0.00    +0.149 HD
ATOM     15  O   THR A   1       2.096  -1.785   0.157  0.00  0.00    -0.274 OA
BRANCH  12  16
ATOM     16  CA  THR A   1       0.073  -0.661  -0.660  0.00  0.00    +0.166 C 
BRANCH  16  17
ATOM     17  N   THR A   1      -0.617  -1.957  -0.857  0.00  0.00    -0.318 NA
ATOM     18  H1  THR A   1      -1.622  -1.772  -0.804  0.00  0.00    +0.119 HD
ATOM     19  H2  THR A   1      -0.426  -2.311  -1.790  0.00  0.00    +0.119 HD
ENDBRANCH  16  17
BRANCH  16  20
ATOM     20  CB  THR A   1      -0.499   0.070   0.573  0.00  0.00    +0.137 C 
ATOM     21  CG2 THR A   1       0.106   1.454   0.784  0.00  0.00    +0.040 C 
BRANCH  20  22
ATOM     22  OG1 THR A   1      -1.914   0.242   0.376  0.00  0.00    -0.390 OA
ATOM     23  HG1 THR A   1      -2.289   0.517   1.231  0.00  0.00    +0.210 HD
ENDBRANCH  20  22
ENDBRANCH  16  20
ENDBRANCH  12  16
ENDBRANCH  11  13
BRANCH  11  24
ATOM     24  CB  ARG A   2       4.393  -0.885  -2.211  0.00  0.00    +0.035 C 
BRANCH  24  25
ATOM     25  CG  ARG A   2       5.914  -1.028  -2.145  0.00  0.00    +0.039 C 
BRANCH  25  26
ATOM     26  CD  ARG A   2       6.435  -1.970  -3.227  0.00  0.00    +0.196 C 
BRANCH  26  27
ATOM     27  NE  ARG A   2       7.904  -1.941  -3.275  0.00  0.00    -0.279 N 
ATOM     28  HE  ARG A   2       8.404  -1.301  -2.665  0.00  0.00    +0.258 HD
ATOM     29  CZ  ARG A   2       8.656  -2.703  -4.081  0.00  0.00    +0.341 C 
ATOM     30  NH2 ARG A   2       9.981  -2.546  -4.087  0.00  0.00    -0.292 N 
ATOM     31 HH21 ARG A   2      10.427  -1.764  -3.603  0.00  0.00    +0.255 HD
ATOM     32 HH22 ARG A   2      10.586  -3.135  -4.641  0.00  0.00    +0.255 HD
ATOM     33  NH1 ARG A   2       8.111  -3.619  -4.890  0.00  0.00    -0.292 N 
ATOM     34 HH11 ARG A   2       7.110  -3.761  -4.922  0.00  0.00    +0.255 HD
ATOM     35 HH12 ARG A   2       8.676  -4.188  -5.505  0.00  0.00    +0.255 HD
ENDBRANCH  26  27
ENDBRANCH  25  26
ENDBRANCH  24  25
ENDBRANCH  11  24
ENDBRANCH   7  11
ENDBRANCH   6   9
BRANCH   6  36
ATOM     36  CB  LEU A   3       5.734   3.982   0.642  0.00  0.00    +0.034 C 
BRANCH  36  37
ATOM     37  CG  LEU A   3       4.265   4.435   0.753  0.00  0.00    -0.015 C 
ATOM     38  CD2 LEU A   3       4.041   5.138   2.094  0.00  0.00    +0.007 C 
ATOM     39  CD1 LEU A   3       3.862   5.372  -0.388  0.00  0.00    +0.007 C 
ENDBRANCH  36  37
ENDBRANCH   6  36
ENDBRANCH   2   6
ENDBRANCH   1   3
BRANCH   1  40
ATOM     40  C   GLN A   4      10.329   5.198  -1.151  0.00  0.00    +0.234 C 
ATOM     41  O   GLN A   4       9.643   6.133  -1.563  0.00  0.00    -0.274 OA
ATOM     42  N   SER A   5      11.622   5.365  -0.738  0.00  0.00    -0.301 N 
ATOM     43  H   SER A   5      12.165   4.603  -0.336  0.00  0.00    +0.150 HD
BRANCH  42  44
ATOM     44  CA  SER A   5      12.319   6.654  -0.837  0.00  0.00    +0.184 C 
BRANCH  44  45
ATOM     45  C   SER A   5      13.824   6.366  -0.723  0.00  0.00    +0.236 C 
ATOM     46  N   LEU A   6      14.648   7.354  -1.198  0.00  0.00    -0.302 N 
ATOM     47  H   LEU A   6      14.264   8.257  -1.472  0.00  0.00    +0.150 HD
ATOM     48  O   SER A   5      14.238   5.297  -0.271  0.00  0.00    -0.274 OA
BRANCH  46  49
ATOM     49  CA  LEU A   6      16.110   7.304  -1.122  0.00  0.00    +0.159 C 
BRANCH  49  50
ATOM     50  C   LEU A   6      16.581   8.772  -1.037  0.00  0.00    +0.234 C 
ATOM     51  O   LEU A   6      15.839   9.707  -1.339  0.00  0.00    -0.274 OA
ATOM     52  N   GLU A   7      17.883   8.951  -0.646  0.00  0.00    -0.302 N 
ATOM     53  H   GLU A   7      18.464   8.151  -0.406  0.00  0.00    +0.150 HD
BRANCH  52  54
ATOM     54  CA  GLU A   7      18.529  10.262  -0.631  0.00  0.00    +0.159 C 
BRANCH  54  55
ATOM     55  C   GLU A   7      20.046   9.991  -0.613  0.00  0.00    +0.234 C 
ATOM     56  N   ASN A   8      20.825  10.963  -1.190  0.00  0.00    -0.304 N 
ATOM     57  H   ASN A   8      20.401  11.792  -1.603  0.00  0.00    +0.149 HD
ATOM     58  O   GLU A   7      20.527   8.988  -0.085  0.00  0.00    -0.274 OA
BRANCH  56  59
ATOM     59  CA  ASN A   8      22.278  10.861  -1.275  0.00  0.00    +0.145 C 
BRANCH  59  60
ATOM     60  C   ASN A   8      22.834  12.274  -1.195  0.00  0.00    +0.245 C 
ATOM     61  O   ASN A   8      22.136  13.283  -1.272  0.00  0.00    -0.299 OA
ENDBRANCH  59  60
BRANCH  59  62
ATOM     62  CB  ASN A   8      22.753  10.222  -2.573  0.00  0.00    +0.125 C 
BRANCH  62  63
ATOM     63  CG  ASN A   8      22.340   8.778  -2.705  0.00  0.00    +0.213 C 
ATOM     64  ND2 ASN A   8      22.974   7.891  -1.887  0.00  0.00    -0.329 N 
ATOM     65 HD21 ASN A   8      23.364   8.172  -0.998  0.00  0.00    +0.145 HD
ATOM     66 HD22 ASN A   8      22.614   6.944  -1.924  0.00  0.00    +0.145 HD
ATOM     67  OD1 ASN A   8      21.506   8.396  -3.519  0.00  0.00    -0.276 OA
ENDBRANCH  62  63
ENDBRANCH  59  62
ENDBRANCH  56  59
ENDBRANCH  54  55
BRANCH  54  68
ATOM     68  CB  GLU A   7      18.089  11.076   0.595  0.00  0.00    +0.038 C 
BRANCH  68  69
ATOM     69  CG  GLU A   7      18.670  12.488   0.635  0.00  0.00    +0.059 C 
BRANCH  69  70
ATOM     70  CD  GLU A   7      17.861  13.428   1.497  0.00  0.00    +0.023 C 
ATOM     71  OE1 GLU A   7      17.446  14.508   1.106  0.00  0.00    -0.851 OA
BRANCH  70  72
ATOM     72  OE2 GLU A   7      17.673  13.000   2.763  0.00  0.00    -0.526 OA
ATOM     73  HE2 GLU A   7      18.083  12.143   2.976  0.00  0.00    +0.290 HD
ENDBRANCH  70  72
ENDBRANCH  69  70
ENDBRANCH  68  69
ENDBRANCH  54  68
ENDBRANCH  52  54
ENDBRANCH  49  50
BRANCH  49  74
ATOM     74  CB  LEU A   6      16.737   6.651  -2.367  0.00  0.00    +0.034 C 
BRANCH  74  75
ATOM     75  CG  LEU A   6      16.519   5.133  -2.514  0.00  0.00    -0.015 C 
ATOM     76  CD2 LEU A   6      17.208   4.340  -1.402  0.00  0.00    +0.007 C 
ATOM     77  CD1 LEU A   6      17.042   4.662  -3.874  0.00  0.00    +0.007 C 
ENDBRANCH  74  75
ENDBRANCH  49  74
ENDBRANCH  46  49
ENDBRANCH  44  45
BRANCH  44  78
ATOM     78  CB  SER A   5      11.870   7.666   0.225  0.00  0.00    +0.187 C 
BRANCH  78  79
ATOM     79  OG  SER A   5      11.950   7.118   1.541  0.00  0.00    -0.393 OA
ATOM     80  H   SER A   5      11.318   6.380   1.579  0.00  0.00    +0.209 HD
ENDBRANCH  78  79
ENDBRANCH  44  78
ENDBRANCH  42  44
ENDBRANCH   1  40
BRANCH   1  81
ATOM     81  CB  GLN A   4      10.133   3.019  -2.429  0.00  0.00    +0.041 C 
BRANCH  81  82
ATOM     82  CG  GLN A   4      11.517   2.378  -2.430  0.00  0.00    +0.098 C 
BRANCH  82  83
ATOM     83  CD  GLN A   4      11.599   1.383  -3.572  0.00  0.00    +0.211 C 
ATOM     84  OE1 GLN A   4      11.182   0.226  -3.502  0.00  0.00    -0.276 OA
ATOM     85  NE2 GLN A   4      12.092   1.896  -4.735  0.00  0.00    -0.329 N 
ATOM     86 HE21 GLN A   4      12.461   2.837  -4.811  0.00  0.00    +0.145 HD
ATOM     87 HE22 GLN A   4      12.186   1.297  -5.543  0.00  0.00    +0.145 HD
ENDBRANCH  82  83
ENDBRANCH  81  82
ENDBRANCH   1  81
TORSDOF 37
