MODEL 1
REMARK VINA RESULT:      -5.7      0.000      0.000
REMARK  Name = TRLQSLEN-mmff94.pdb
REMARK  42 active torsions:
REMARK  status: ('A' for Active; 'I' for Inactive)
REMARK    1  A    between atoms: _1  and  _2
REMARK    2  A    between atoms: _2  and  _3
REMARK    3  A    between atoms: _2  and  _5
REMARK    4  A    between atoms: _5  and  _6
REMARK    5  A    between atoms: _5  and  _7
REMARK    6  A    between atoms: _15  and  _16
REMARK    7  A    between atoms: _16  and  _17
REMARK    8  A    between atoms: _16  and  _19
REMARK    9  A    between atoms: _19  and  _20
REMARK   10  A    between atoms: _20  and  _21
REMARK   11  A    between atoms: _21  and  _22
REMARK   12  A    between atoms: _39  and  _40
REMARK   13  A    between atoms: _40  and  _41
REMARK   14  A    between atoms: _40  and  _43
REMARK   15  A    between atoms: _43  and  _44
REMARK   16  A    between atoms: _44  and  _45
REMARK   17  A    between atoms: _44  and  _46
REMARK   18  A    between atoms: _58  and  _59
REMARK   19  A    between atoms: _59  and  _60
REMARK   20  A    between atoms: _59  and  _62
REMARK   21  A    between atoms: _62  and  _63
REMARK   22  A    between atoms: _63  and  _64
REMARK   23  A    between atoms: _75  and  _76
REMARK   24  A    between atoms: _76  and  _77
REMARK   25  A    between atoms: _76  and  _79
REMARK   26  A    between atoms: _79  and  _80
REMARK   27  A    between atoms: _86  and  _87
REMARK   28  A    between atoms: _87  and  _88
REMARK   29  A    between atoms: _87  and  _90
REMARK   30  A    between atoms: _90  and  _91
REMARK   31  A    between atoms: _91  and  _92
REMARK   32  A    between atoms: _91  and  _93
REMARK   33  A    between atoms: _105  and  _106
REMARK   34  A    between atoms: _106  and  _107
REMARK   35  A    between atoms: _106  and  _109
REMARK   36  A    between atoms: _109  and  _110
REMARK   37  A    between atoms: _110  and  _111
REMARK   38  A    between atoms: _111  and  _112
REMARK   39  A    between atoms: _120  and  _121
REMARK   40  A    between atoms: _121  and  _122
REMARK   41  A    between atoms: _121  and  _124
REMARK   42  A    between atoms: _124  and  _125
REMARK                            x       y       z     vdW  Elec       q    Type
REMARK                         _______ _______ _______ _____ _____    ______ ____
ROOT
ATOM      1  CA  GLN A   4       8.883  -0.355  24.437  0.00  0.00    +0.159 C 
ENDROOT
BRANCH   1   3
ATOM      2  C   LEU A   3       6.673  -0.917  25.434  0.00  0.00    +0.234 C 
ATOM      3  N   GLN A   4       7.969  -0.484  25.572  0.00  0.00    -0.302 N 
ATOM      4  H   GLN A   4       8.302  -0.127  26.466  0.00  0.00    +0.150 HD
ATOM      5  O   LEU A   3       6.198  -1.250  24.346  0.00  0.00    -0.274 OA
BRANCH   2   6
ATOM      6  CA  LEU A   3       5.854  -0.946  26.742  0.00  0.00    +0.159 C 
BRANCH   6   9
ATOM      7  C   ARG A   2       4.830   0.991  27.922  0.00  0.00    +0.234 C 
ATOM      8  O   ARG A   2       5.178   0.612  29.038  0.00  0.00    -0.274 OA
ATOM      9  N   LEU A   3       5.073   0.286  26.771  0.00  0.00    -0.302 N 
ATOM     10  H   LEU A   3       4.847   0.692  25.869  0.00  0.00    +0.150 HD
BRANCH   7  11
ATOM     11  CA  ARG A   2       4.112   2.334  27.708  0.00  0.00    +0.159 C 
BRANCH  11  13
ATOM     12  C   THR A   1       4.951   4.648  27.976  0.00  0.00    +0.233 C 
ATOM     13  N   ARG A   2       5.150   3.347  27.567  0.00  0.00    -0.303 N 
ATOM     14  H   ARG A   2       6.042   3.051  27.181  0.00  0.00    +0.149 HD
ATOM     15  O   THR A   1       3.879   5.014  28.451  0.00  0.00    -0.274 OA
BRANCH  12  16
ATOM     16  CA  THR A   1       6.185   5.554  27.807  0.00  0.00    +0.166 C 
BRANCH  16  17
ATOM     17  N   THR A   1       7.353   4.953  28.491  0.00  0.00    -0.318 NA
ATOM     18  H1  THR A   1       8.159   5.549  28.286  0.00  0.00    +0.119 HD
ATOM     19  H2  THR A   1       7.212   4.975  29.497  0.00  0.00    +0.119 HD
ENDBRANCH  16  17
BRANCH  16  20
ATOM     20  CB  THR A   1       6.498   5.786  26.314  0.00  0.00    +0.137 C 
ATOM     21  CG2 THR A   1       7.813   5.151  25.871  0.00  0.00    +0.040 C 
BRANCH  20  22
ATOM     22  OG1 THR A   1       5.446   5.188  25.536  0.00  0.00    -0.390 OA
ATOM     23  HG1 THR A   1       5.721   5.230  24.604  0.00  0.00    +0.210 HD
ENDBRANCH  20  22
ENDBRANCH  16  20
ENDBRANCH  12  16
ENDBRANCH  11  13
BRANCH  11  24
ATOM     24  CB  ARG A   2       3.235   2.295  26.449  0.00  0.00    +0.035 C 
BRANCH  24  25
ATOM     25  CG  ARG A   2       2.048   3.257  26.507  0.00  0.00    +0.039 C 
BRANCH  25  26
ATOM     26  CD  ARG A   2       1.942   4.092  25.234  0.00  0.00    +0.196 C 
BRANCH  26  27
ATOM     27  NE  ARG A   2       2.335   3.299  24.060  0.00  0.00    -0.279 N 
ATOM     28  HE  ARG A   2       2.516   2.306  24.175  0.00  0.00    +0.258 HD
ATOM     29  CZ  ARG A   2       2.486   3.790  22.823  0.00  0.00    +0.341 C 
ATOM     30  NH2 ARG A   2       2.910   2.989  21.844  0.00  0.00    -0.292 N 
ATOM     31 HH21 ARG A   2       3.262   2.050  22.039  0.00  0.00    +0.255 HD
ATOM     32 HH22 ARG A   2       2.987   3.307  20.889  0.00  0.00    +0.255 HD
ATOM     33  NH1 ARG A   2       2.226   5.072  22.540  0.00  0.00    -0.292 N 
ATOM     34 HH11 ARG A   2       1.912   5.713  23.257  0.00  0.00    +0.255 HD
ATOM     35 HH12 ARG A   2       2.347   5.446  21.610  0.00  0.00    +0.255 HD
ENDBRANCH  26  27
ENDBRANCH  25  26
ENDBRANCH  24  25
ENDBRANCH  11  24
ENDBRANCH   7  11
ENDBRANCH   6   9
BRANCH   6  36
ATOM     36  CB  LEU A   3       4.947  -2.184  26.782  0.00  0.00    +0.034 C 
BRANCH  36  37
ATOM     37  CG  LEU A   3       4.875  -2.883  28.154  0.00  0.00    -0.015 C 
ATOM     38  CD2 LEU A   3       3.487  -2.677  28.767  0.00  0.00    +0.007 C 
ATOM     39  CD1 LEU A   3       5.172  -4.381  28.056  0.00  0.00    +0.007 C 
ENDBRANCH  36  37
ENDBRANCH   6  36
ENDBRANCH   2   6
ENDBRANCH   1   3
BRANCH   1  40
ATOM     40  C   GLN A   4       9.449  -1.766  24.185  0.00  0.00    +0.234 C 
ATOM     41  O   GLN A   4      10.279  -1.980  23.301  0.00  0.00    -0.274 OA
ATOM     42  N   SER A   5       8.938  -2.765  24.967  0.00  0.00    -0.301 N 
ATOM     43  H   SER A   5       8.302  -2.576  25.740  0.00  0.00    +0.150 HD
BRANCH  42  44
ATOM     44  CA  SER A   5       9.272  -4.179  24.754  0.00  0.00    +0.184 C 
BRANCH  44  45
ATOM     45  C   SER A   5       8.180  -4.772  23.849  0.00  0.00    +0.236 C 
ATOM     46  N   LEU A   6       7.009  -4.060  23.799  0.00  0.00    -0.302 N 
ATOM     47  H   LEU A   6       6.947  -3.139  24.231  0.00  0.00    +0.150 HD
ATOM     48  O   SER A   5       8.353  -5.836  23.252  0.00  0.00    -0.274 OA
BRANCH  46  49
ATOM     49  CA  LEU A   6       5.872  -4.418  22.948  0.00  0.00    +0.159 C 
BRANCH  49  50
ATOM     50  C   LEU A   6       6.068  -3.640  21.629  0.00  0.00    +0.234 C 
ATOM     51  O   LEU A   6       5.937  -4.184  20.532  0.00  0.00    -0.274 OA
ATOM     52  N   GLU A   7       6.434  -2.326  21.769  0.00  0.00    -0.302 N 
ATOM     53  H   GLU A   7       6.533  -1.914  22.694  0.00  0.00    +0.150 HD
BRANCH  52  54
ATOM     54  CA  GLU A   7       6.781  -1.478  20.631  0.00  0.00    +0.159 C 
BRANCH  54  55
ATOM     55  C   GLU A   7       7.314  -0.160  21.226  0.00  0.00    +0.234 C 
ATOM     56  N   ASN A   8       6.393   0.593  21.910  0.00  0.00    -0.304 N 
ATOM     57  H   ASN A   8       5.427   0.282  21.995  0.00  0.00    +0.149 HD
ATOM     58  O   GLU A   7       8.495   0.175  21.124  0.00  0.00    -0.274 OA
BRANCH  56  59
ATOM     59  CA  ASN A   8       6.722   1.875  22.523  0.00  0.00    +0.145 C 
BRANCH  59  60
ATOM     60  C   ASN A   8       5.828   2.034  23.743  0.00  0.00    +0.245 C 
ATOM     61  O   ASN A   8       6.259   2.215  24.880  0.00  0.00    -0.299 OA
ENDBRANCH  59  60
BRANCH  59  62
ATOM     62  CB  ASN A   8       6.490   3.056  21.590  0.00  0.00    +0.125 C 
BRANCH  62  63
ATOM     63  CG  ASN A   8       6.864   4.379  22.208  0.00  0.00    +0.213 C 
ATOM     64  ND2 ASN A   8       5.858   5.289  22.344  0.00  0.00    -0.329 N 
ATOM     65 HD21 ASN A   8       4.892   5.005  22.430  0.00  0.00    +0.145 HD
ATOM     66 HD22 ASN A   8       6.110   6.131  22.848  0.00  0.00    +0.145 HD
ATOM     67  OD1 ASN A   8       8.010   4.655  22.547  0.00  0.00    -0.276 OA
ENDBRANCH  62  63
ENDBRANCH  59  62
ENDBRANCH  56  59
ENDBRANCH  54  55
BRANCH  54  68
ATOM     68  CB  GLU A   7       5.556  -1.235  19.735  0.00  0.00    +0.038 C 
BRANCH  68  69
ATOM     69  CG  GLU A   7       5.911  -0.822  18.308  0.00  0.00    +0.059 C 
BRANCH  69  70
ATOM     70  CD  GLU A   7       5.790   0.666  18.084  0.00  0.00    +0.023 C 
ATOM     71  OE1 GLU A   7       6.594   1.315  17.432  0.00  0.00    -0.851 OA
BRANCH  70  72
ATOM     72  OE2 GLU A   7       4.740   1.240  18.708  0.00  0.00    -0.526 OA
ATOM     73  HE2 GLU A   7       4.049   1.592  18.118  0.00  0.00    +0.290 HD
ENDBRANCH  70  72
ENDBRANCH  69  70
ENDBRANCH  68  69
ENDBRANCH  54  68
ENDBRANCH  52  54
ENDBRANCH  49  50
BRANCH  49  74
ATOM     74  CB  LEU A   6       4.525  -4.011  23.572  0.00  0.00    +0.034 C 
BRANCH  74  75
ATOM     75  CG  LEU A   6       3.638  -5.167  24.074  0.00  0.00    -0.015 C 
ATOM     76  CD2 LEU A   6       2.671  -4.718  25.171  0.00  0.00    +0.007 C 
ATOM     77  CD1 LEU A   6       4.517  -6.304  24.604  0.00  0.00    +0.007 C 
ENDBRANCH  74  75
ENDBRANCH  49  74
ENDBRANCH  46  49
ENDBRANCH  44  45
BRANCH  44  78
ATOM     78  CB  SER A   5       9.395  -4.973  26.061  0.00  0.00    +0.187 C 
BRANCH  78  79
ATOM     79  OG  SER A   5       8.228  -5.756  26.313  0.00  0.00    -0.393 OA
ATOM     80  H   SER A   5       8.488  -6.461  26.929  0.00  0.00    +0.209 HD
ENDBRANCH  78  79
ENDBRANCH  44  78
ENDBRANCH  42  44
ENDBRANCH   1  40
BRANCH   1  81
ATOM     81  CB  GLN A   4      10.007   0.635  24.772  0.00  0.00    +0.041 C 
BRANCH  81  82
ATOM     82  CG  GLN A   4       9.652   2.089  24.478  0.00  0.00    +0.098 C 
BRANCH  82  83
ATOM     83  CD  GLN A   4      10.558   2.605  23.376  0.00  0.00    +0.211 C 
ATOM     84  OE1 GLN A   4      11.592   3.240  23.583  0.00  0.00    -0.276 OA
ATOM     85  NE2 GLN A   4      10.190   2.229  22.118  0.00  0.00    -0.329 N 
ATOM     86 HE21 GLN A   4       9.332   1.725  21.921  0.00  0.00    +0.145 HD
ATOM     87 HE22 GLN A   4      10.736   2.536  21.326  0.00  0.00    +0.145 HD
ENDBRANCH  82  83
ENDBRANCH  81  82
ENDBRANCH   1  81
TORSDOF 37
ENDMDL
MODEL 2
REMARK VINA RESULT:      -5.4      2.591      8.168
REMARK  Name = TRLQSLEN-mmff94.pdb
REMARK  42 active torsions:
REMARK  status: ('A' for Active; 'I' for Inactive)
REMARK    1  A    between atoms: _1  and  _2
REMARK    2  A    between atoms: _2  and  _3
REMARK    3  A    between atoms: _2  and  _5
REMARK    4  A    between atoms: _5  and  _6
REMARK    5  A    between atoms: _5  and  _7
REMARK    6  A    between atoms: _15  and  _16
REMARK    7  A    between atoms: _16  and  _17
REMARK    8  A    between atoms: _16  and  _19
REMARK    9  A    between atoms: _19  and  _20
REMARK   10  A    between atoms: _20  and  _21
REMARK   11  A    between atoms: _21  and  _22
REMARK   12  A    between atoms: _39  and  _40
REMARK   13  A    between atoms: _40  and  _41
REMARK   14  A    between atoms: _40  and  _43
REMARK   15  A    between atoms: _43  and  _44
REMARK   16  A    between atoms: _44  and  _45
REMARK   17  A    between atoms: _44  and  _46
REMARK   18  A    between atoms: _58  and  _59
REMARK   19  A    between atoms: _59  and  _60
REMARK   20  A    between atoms: _59  and  _62
REMARK   21  A    between atoms: _62  and  _63
REMARK   22  A    between atoms: _63  and  _64
REMARK   23  A    between atoms: _75  and  _76
REMARK   24  A    between atoms: _76  and  _77
REMARK   25  A    between atoms: _76  and  _79
REMARK   26  A    between atoms: _79  and  _80
REMARK   27  A    between atoms: _86  and  _87
REMARK   28  A    between atoms: _87  and  _88
REMARK   29  A    between atoms: _87  and  _90
REMARK   30  A    between atoms: _90  and  _91
REMARK   31  A    between atoms: _91  and  _92
REMARK   32  A    between atoms: _91  and  _93
REMARK   33  A    between atoms: _105  and  _106
REMARK   34  A    between atoms: _106  and  _107
REMARK   35  A    between atoms: _106  and  _109
REMARK   36  A    between atoms: _109  and  _110
REMARK   37  A    between atoms: _110  and  _111
REMARK   38  A    between atoms: _111  and  _112
REMARK   39  A    between atoms: _120  and  _121
REMARK   40  A    between atoms: _121  and  _122
REMARK   41  A    between atoms: _121  and  _124
REMARK   42  A    between atoms: _124  and  _125
REMARK                            x       y       z     vdW  Elec       q    Type
REMARK                         _______ _______ _______ _____ _____    ______ ____
ROOT
ATOM      1  CA  GLN A   4       6.799  -2.623  23.906  0.00  0.00    +0.159 C 
ENDROOT
BRANCH   1   3
ATOM      2  C   LEU A   3       5.925  -1.879  26.113  0.00  0.00    +0.234 C 
ATOM      3  N   GLN A   4       5.776  -2.014  24.755  0.00  0.00    -0.302 N 
ATOM      4  H   GLN A   4       4.888  -1.792  24.307  0.00  0.00    +0.150 HD
ATOM      5  O   LEU A   3       6.942  -2.243  26.708  0.00  0.00    -0.274 OA
BRANCH   2   6
ATOM      6  CA  LEU A   3       4.718  -1.248  26.841  0.00  0.00    +0.159 C 
BRANCH   6   9
ATOM      7  C   ARG A   2       2.536  -2.444  26.928  0.00  0.00    +0.234 C 
ATOM      8  O   ARG A   2       1.930  -1.570  26.312  0.00  0.00    -0.274 OA
ATOM      9  N   LEU A   3       3.863  -2.353  27.263  0.00  0.00    -0.302 N 
ATOM     10  H   LEU A   3       4.335  -3.144  27.688  0.00  0.00    +0.150 HD
BRANCH   7  11
ATOM     11  CA  ARG A   2       1.859  -3.757  27.352  0.00  0.00    +0.159 C 
BRANCH  11  13
ATOM     12  C   THR A   1       2.681  -5.081  25.427  0.00  0.00    +0.233 C 
ATOM     13  N   ARG A   2       1.636  -4.526  26.134  0.00  0.00    -0.303 N 
ATOM     14  H   ARG A   2       0.674  -4.664  25.839  0.00  0.00    +0.149 HD
ATOM     15  O   THR A   1       3.847  -4.925  25.780  0.00  0.00    -0.274 OA
BRANCH  12  16
ATOM     16  CA  THR A   1       2.242  -5.912  24.207  0.00  0.00    +0.166 C 
BRANCH  16  17
ATOM     17  N   THR A   1       2.935  -5.431  22.990  0.00  0.00    -0.318 NA
ATOM     18  H1  THR A   1       2.219  -5.297  22.271  0.00  0.00    +0.119 HD
ATOM     19  H2  THR A   1       3.354  -4.522  23.168  0.00  0.00    +0.119 HD
ENDBRANCH  16  17
BRANCH  16  20
ATOM     20  CB  THR A   1       2.527  -7.412  24.431  0.00  0.00    +0.137 C 
ATOM     21  CG2 THR A   1       1.707  -8.320  23.521  0.00  0.00    +0.040 C 
BRANCH  20  22
ATOM     22  OG1 THR A   1       3.917  -7.652  24.142  0.00  0.00    -0.390 OA
ATOM     23  HG1 THR A   1       4.396  -7.600  24.988  0.00  0.00    +0.210 HD
ENDBRANCH  20  22
ENDBRANCH  16  20
ENDBRANCH  12  16
ENDBRANCH  11  13
BRANCH  11  24
ATOM     24  CB  ARG A   2       2.748  -4.546  28.322  0.00  0.00    +0.035 C 
BRANCH  24  25
ATOM     25  CG  ARG A   2       2.010  -5.682  29.033  0.00  0.00    +0.039 C 
BRANCH  25  26
ATOM     26  CD  ARG A   2       2.591  -7.044  28.663  0.00  0.00    +0.196 C 
BRANCH  26  27
ATOM     27  NE  ARG A   2       3.962  -7.179  29.177  0.00  0.00    -0.279 N 
ATOM     28  HE  ARG A   2       4.108  -7.238  30.180  0.00  0.00    +0.258 HD
ATOM     29  CZ  ARG A   2       5.062  -7.225  28.413  0.00  0.00    +0.341 C 
ATOM     30  NH2 ARG A   2       6.263  -7.283  28.992  0.00  0.00    -0.292 N 
ATOM     31 HH21 ARG A   2       6.376  -7.147  29.998  0.00  0.00    +0.255 HD
ATOM     32 HH22 ARG A   2       7.112  -7.372  28.452  0.00  0.00    +0.255 HD
ATOM     33  NH1 ARG A   2       4.990  -7.209  27.077  0.00  0.00    -0.292 N 
ATOM     34 HH11 ARG A   2       4.099  -7.155  26.601  0.00  0.00    +0.255 HD
ATOM     35 HH12 ARG A   2       5.819  -7.235  26.500  0.00  0.00    +0.255 HD
ENDBRANCH  26  27
ENDBRANCH  25  26
ENDBRANCH  24  25
ENDBRANCH  11  24
ENDBRANCH   7  11
ENDBRANCH   6   9
BRANCH   6  36
ATOM     36  CB  LEU A   3       5.188  -0.415  28.041  0.00  0.00    +0.034 C 
BRANCH  36  37
ATOM     37  CG  LEU A   3       4.314   0.817  28.349  0.00  0.00    -0.015 C 
ATOM     38  CD2 LEU A   3       3.727   1.372  27.049  0.00  0.00    +0.007 C 
ATOM     39  CD1 LEU A   3       3.179   0.491  29.323  0.00  0.00    +0.007 C 
ENDBRANCH  36  37
ENDBRANCH   6  36
ENDBRANCH   2   6
ENDBRANCH   1   3
BRANCH   1  40
ATOM     40  C   GLN A   4       6.581  -2.044  22.495  0.00  0.00    +0.234 C 
ATOM     41  O   GLN A   4       5.985  -2.675  21.622  0.00  0.00    -0.274 OA
ATOM     42  N   SER A   5       7.132  -0.814  22.261  0.00  0.00    -0.301 N 
ATOM     43  H   SER A   5       7.566  -0.266  23.001  0.00  0.00    +0.150 HD
BRANCH  42  44
ATOM     44  CA  SER A   5       7.132  -0.192  20.931  0.00  0.00    +0.184 C 
BRANCH  44  45
ATOM     45  C   SER A   5       6.365   1.134  21.050  0.00  0.00    +0.236 C 
ATOM     46  N   LEU A   6       6.176   1.590  22.330  0.00  0.00    -0.302 N 
ATOM     47  H   LEU A   6       6.641   1.132  23.113  0.00  0.00    +0.150 HD
ATOM     48  O   SER A   5       5.924   1.710  20.054  0.00  0.00    -0.274 OA
BRANCH  46  49
ATOM     49  CA  LEU A   6       5.530   2.863  22.656  0.00  0.00    +0.159 C 
BRANCH  49  50
ATOM     50  C   LEU A   6       6.673   3.885  22.838  0.00  0.00    +0.234 C 
ATOM     51  O   LEU A   6       7.156   4.491  21.881  0.00  0.00    -0.274 OA
ATOM     52  N   GLU A   7       7.132   4.033  24.121  0.00  0.00    -0.302 N 
ATOM     53  H   GLU A   7       6.706   3.512  24.885  0.00  0.00    +0.150 HD
BRANCH  52  54
ATOM     54  CA  GLU A   7       8.288   4.863  24.455  0.00  0.00    +0.159 C 
BRANCH  54  55
ATOM     55  C   GLU A   7       9.532   4.028  24.093  0.00  0.00    +0.234 C 
ATOM     56  N   ASN A   8       9.378   2.668  24.191  0.00  0.00    -0.304 N 
ATOM     57  H   ASN A   8       8.492   2.265  24.494  0.00  0.00    +0.149 HD
ATOM     58  O   GLU A   7      10.581   4.546  23.709  0.00  0.00    -0.274 OA
BRANCH  56  59
ATOM     59  CA  ASN A   8      10.457   1.729  23.903  0.00  0.00    +0.145 C 
BRANCH  59  60
ATOM     60  C   ASN A   8      10.294   1.285  22.458  0.00  0.00    +0.245 C 
ATOM     61  O   ASN A   8       9.678   1.934  21.615  0.00  0.00    -0.299 OA
ENDBRANCH  59  60
BRANCH  59  62
ATOM     62  CB  ASN A   8      10.427   0.498  24.799  0.00  0.00    +0.125 C 
BRANCH  62  63
ATOM     63  CG  ASN A   8       9.066   0.231  25.390  0.00  0.00    +0.213 C 
ATOM     64  ND2 ASN A   8       9.041  -0.163  26.694  0.00  0.00    -0.329 N 
ATOM     65 HD21 ASN A   8       9.775   0.090  27.341  0.00  0.00    +0.145 HD
ATOM     66 HD22 ASN A   8       8.114  -0.243  27.098  0.00  0.00    +0.145 HD
ATOM     67  OD1 ASN A   8       8.029   0.326  24.742  0.00  0.00    -0.276 OA
ENDBRANCH  62  63
ENDBRANCH  59  62
ENDBRANCH  56  59
ENDBRANCH  54  55
BRANCH  54  68
ATOM     68  CB  GLU A   7       8.279   5.243  25.943  0.00  0.00    +0.038 C 
BRANCH  68  69
ATOM     69  CG  GLU A   7       6.995   4.848  26.670  0.00  0.00    +0.059 C 
BRANCH  69  70
ATOM     70  CD  GLU A   7       7.159   3.604  27.511  0.00  0.00    +0.023 C 
ATOM     71  OE1 GLU A   7       7.086   3.604  28.730  0.00  0.00    -0.851 OA
BRANCH  70  72
ATOM     72  OE2 GLU A   7       7.446   2.489  26.806  0.00  0.00    -0.526 OA
ATOM     73  HE2 GLU A   7       6.799   1.767  26.892  0.00  0.00    +0.290 HD
ENDBRANCH  70  72
ENDBRANCH  69  70
ENDBRANCH  68  69
ENDBRANCH  54  68
ENDBRANCH  52  54
ENDBRANCH  49  50
BRANCH  49  74
ATOM     74  CB  LEU A   6       4.717   2.787  23.961  0.00  0.00    +0.034 C 
BRANCH  74  75
ATOM     75  CG  LEU A   6       3.307   3.407  23.914  0.00  0.00    -0.015 C 
ATOM     76  CD2 LEU A   6       2.845   3.683  22.483  0.00  0.00    +0.007 C 
ATOM     77  CD1 LEU A   6       3.286   4.711  24.717  0.00  0.00    +0.007 C 
ENDBRANCH  74  75
ENDBRANCH  49  74
ENDBRANCH  46  49
ENDBRANCH  44  45
BRANCH  44  78
ATOM     78  CB  SER A   5       6.518  -1.087  19.846  0.00  0.00    +0.187 C 
BRANCH  78  79
ATOM     79  OG  SER A   5       5.122  -0.833  19.682  0.00  0.00    -0.393 OA
ATOM     80  H   SER A   5       4.849  -0.267  20.424  0.00  0.00    +0.209 HD
ENDBRANCH  78  79
ENDBRANCH  44  78
ENDBRANCH  42  44
ENDBRANCH   1  40
BRANCH   1  81
ATOM     81  CB  GLN A   4       6.643  -4.150  23.901  0.00  0.00    +0.041 C 
BRANCH  81  82
ATOM     82  CG  GLN A   4       7.942  -4.900  24.179  0.00  0.00    +0.098 C 
BRANCH  82  83
ATOM     83  CD  GLN A   4       8.076  -5.118  25.674  0.00  0.00    +0.211 C 
ATOM     84  OE1 GLN A   4       7.376  -5.903  26.316  0.00  0.00    -0.276 OA
ATOM     85  NE2 GLN A   4       9.106  -4.440  26.255  0.00  0.00    -0.329 N 
ATOM     86 HE21 GLN A   4       9.681  -3.773  25.753  0.00  0.00    +0.145 HD
ATOM     87 HE22 GLN A   4       9.260  -4.525  27.249  0.00  0.00    +0.145 HD
ENDBRANCH  82  83
ENDBRANCH  81  82
ENDBRANCH   1  81
TORSDOF 37
ENDMDL
MODEL 3
REMARK VINA RESULT:      -5.2      2.039      6.076
REMARK  Name = TRLQSLEN-mmff94.pdb
REMARK  42 active torsions:
REMARK  status: ('A' for Active; 'I' for Inactive)
REMARK    1  A    between atoms: _1  and  _2
REMARK    2  A    between atoms: _2  and  _3
REMARK    3  A    between atoms: _2  and  _5
REMARK    4  A    between atoms: _5  and  _6
REMARK    5  A    between atoms: _5  and  _7
REMARK    6  A    between atoms: _15  and  _16
REMARK    7  A    between atoms: _16  and  _17
REMARK    8  A    between atoms: _16  and  _19
REMARK    9  A    between atoms: _19  and  _20
REMARK   10  A    between atoms: _20  and  _21
REMARK   11  A    between atoms: _21  and  _22
REMARK   12  A    between atoms: _39  and  _40
REMARK   13  A    between atoms: _40  and  _41
REMARK   14  A    between atoms: _40  and  _43
REMARK   15  A    between atoms: _43  and  _44
REMARK   16  A    between atoms: _44  and  _45
REMARK   17  A    between atoms: _44  and  _46
REMARK   18  A    between atoms: _58  and  _59
REMARK   19  A    between atoms: _59  and  _60
REMARK   20  A    between atoms: _59  and  _62
REMARK   21  A    between atoms: _62  and  _63
REMARK   22  A    between atoms: _63  and  _64
REMARK   23  A    between atoms: _75  and  _76
REMARK   24  A    between atoms: _76  and  _77
REMARK   25  A    between atoms: _76  and  _79
REMARK   26  A    between atoms: _79  and  _80
REMARK   27  A    between atoms: _86  and  _87
REMARK   28  A    between atoms: _87  and  _88
REMARK   29  A    between atoms: _87  and  _90
REMARK   30  A    between atoms: _90  and  _91
REMARK   31  A    between atoms: _91  and  _92
REMARK   32  A    between atoms: _91  and  _93
REMARK   33  A    between atoms: _105  and  _106
REMARK   34  A    between atoms: _106  and  _107
REMARK   35  A    between atoms: _106  and  _109
REMARK   36  A    between atoms: _109  and  _110
REMARK   37  A    between atoms: _110  and  _111
REMARK   38  A    between atoms: _111  and  _112
REMARK   39  A    between atoms: _120  and  _121
REMARK   40  A    between atoms: _121  and  _122
REMARK   41  A    between atoms: _121  and  _124
REMARK   42  A    between atoms: _124  and  _125
REMARK                            x       y       z     vdW  Elec       q    Type
REMARK                         _______ _______ _______ _____ _____    ______ ____
ROOT
ATOM      1  CA  GLN A   4       7.676  -3.513  22.587  0.00  0.00    +0.159 C 
ENDROOT
BRANCH   1   3
ATOM      2  C   LEU A   3       7.826  -1.199  21.686  0.00  0.00    +0.234 C 
ATOM      3  N   GLN A   4       7.110  -2.350  21.906  0.00  0.00    -0.302 N 
ATOM      4  H   GLN A   4       6.113  -2.386  21.697  0.00  0.00    +0.150 HD
ATOM      5  O   LEU A   3       9.004  -1.076  22.029  0.00  0.00    -0.274 OA
BRANCH   2   6
ATOM      6  CA  LEU A   3       7.042  -0.067  20.987  0.00  0.00    +0.159 C 
BRANCH   6   9
ATOM      7  C   ARG A   2       6.170   2.130  21.769  0.00  0.00    +0.234 C 
ATOM      8  O   ARG A   2       5.439   2.289  20.793  0.00  0.00    -0.274 OA
ATOM      9  N   LEU A   3       7.004   1.051  21.923  0.00  0.00    -0.302 N 
ATOM     10  H   LEU A   3       7.514   0.924  22.791  0.00  0.00    +0.150 HD
BRANCH   7  11
ATOM     11  CA  ARG A   2       6.187   3.122  22.942  0.00  0.00    +0.159 C 
BRANCH  11  13
ATOM     12  C   THR A   1       8.302   3.919  23.953  0.00  0.00    +0.233 C 
ATOM     13  N   ARG A   2       7.454   3.838  22.869  0.00  0.00    -0.303 N 
ATOM     14  H   ARG A   2       7.705   4.252  21.976  0.00  0.00    +0.149 HD
ATOM     15  O   THR A   1       8.011   3.415  25.034  0.00  0.00    -0.274 OA
BRANCH  12  16
ATOM     16  CA  THR A   1       9.622   4.658  23.662  0.00  0.00    +0.166 C 
BRANCH  16  17
ATOM     17  N   THR A   1       9.876   5.674  24.710  0.00  0.00    -0.318 NA
ATOM     18  H1  THR A   1       9.331   6.504  24.461  0.00  0.00    +0.119 HD
ATOM     19  H2  THR A   1       9.524   5.342  25.604  0.00  0.00    +0.119 HD
ENDBRANCH  16  17
BRANCH  16  20
ATOM     20  CB  THR A   1      10.802   3.667  23.577  0.00  0.00    +0.137 C 
ATOM     21  CG2 THR A   1      10.458   2.388  22.821  0.00  0.00    +0.040 C 
BRANCH  20  22
ATOM     22  OG1 THR A   1      11.878   4.311  22.872  0.00  0.00    -0.390 OA
ATOM     23  HG1 THR A   1      11.695   5.267  22.885  0.00  0.00    +0.210 HD
ENDBRANCH  20  22
ENDBRANCH  16  20
ENDBRANCH  12  16
ENDBRANCH  11  13
BRANCH  11  24
ATOM     24  CB  ARG A   2       5.015   4.108  22.846  0.00  0.00    +0.035 C 
BRANCH  24  25
ATOM     25  CG  ARG A   2       3.661   3.474  23.166  0.00  0.00    +0.039 C 
BRANCH  25  26
ATOM     26  CD  ARG A   2       2.543   4.090  22.330  0.00  0.00    +0.196 C 
BRANCH  26  27
ATOM     27  NE  ARG A   2       2.881   4.046  20.900  0.00  0.00    -0.279 N 
ATOM     28  HE  ARG A   2       3.503   4.753  20.520  0.00  0.00    +0.258 HD
ATOM     29  CZ  ARG A   2       2.421   3.132  20.035  0.00  0.00    +0.341 C 
ATOM     30  NH2 ARG A   2       2.743   3.228  18.744  0.00  0.00    -0.292 N 
ATOM     31 HH21 ARG A   2       3.210   4.057  18.371  0.00  0.00    +0.255 HD
ATOM     32 HH22 ARG A   2       2.460   2.531  18.070  0.00  0.00    +0.255 HD
ATOM     33  NH1 ARG A   2       1.637   2.123  20.431  0.00  0.00    -0.292 N 
ATOM     34 HH11 ARG A   2       1.362   2.021  21.400  0.00  0.00    +0.255 HD
ATOM     35 HH12 ARG A   2       1.282   1.438  19.779  0.00  0.00    +0.255 HD
ENDBRANCH  26  27
ENDBRANCH  25  26
ENDBRANCH  24  25
ENDBRANCH  11  24
ENDBRANCH   7  11
ENDBRANCH   6   9
BRANCH   6  36
ATOM     36  CB  LEU A   3       7.725   0.328  19.670  0.00  0.00    +0.034 C 
BRANCH  36  37
ATOM     37  CG  LEU A   3       6.906   0.011  18.403  0.00  0.00    -0.015 C 
ATOM     38  CD2 LEU A   3       5.791  -0.981  18.743  0.00  0.00    +0.007 C 
ATOM     39  CD1 LEU A   3       6.297   1.270  17.781  0.00  0.00    +0.007 C 
ENDBRANCH  36  37
ENDBRANCH   6  36
ENDBRANCH   2   6
ENDBRANCH   1   3
BRANCH   1  40
ATOM     40  C   GLN A   4       6.615  -4.626  22.482  0.00  0.00    +0.234 C 
ATOM     41  O   GLN A   4       6.562  -5.378  21.510  0.00  0.00    -0.274 OA
ATOM     42  N   SER A   5       5.712  -4.690  23.508  0.00  0.00    -0.301 N 
ATOM     43  H   SER A   5       5.796  -4.111  24.341  0.00  0.00    +0.150 HD
BRANCH  42  44
ATOM     44  CA  SER A   5       4.560  -5.600  23.485  0.00  0.00    +0.184 C 
BRANCH  44  45
ATOM     45  C   SER A   5       3.350  -4.815  24.016  0.00  0.00    +0.236 C 
ATOM     46  N   LEU A   6       3.569  -4.112  25.173  0.00  0.00    -0.302 N 
ATOM     47  H   LEU A   6       4.510  -4.025  25.552  0.00  0.00    +0.150 HD
ATOM     48  O   SER A   5       2.258  -4.863  23.447  0.00  0.00    -0.274 OA
BRANCH  46  49
ATOM     49  CA  LEU A   6       2.568  -3.249  25.805  0.00  0.00    +0.159 C 
BRANCH  49  50
ATOM     50  C   LEU A   6       3.361  -2.225  26.645  0.00  0.00    +0.234 C 
ATOM     51  O   LEU A   6       2.823  -1.564  27.534  0.00  0.00    -0.274 OA
ATOM     52  N   GLU A   7       4.681  -2.079  26.304  0.00  0.00    -0.302 N 
ATOM     53  H   GLU A   7       5.087  -2.644  25.562  0.00  0.00    +0.150 HD
BRANCH  52  54
ATOM     54  CA  GLU A   7       5.545  -1.068  26.910  0.00  0.00    +0.159 C 
BRANCH  54  55
ATOM     55  C   GLU A   7       5.184   0.267  26.231  0.00  0.00    +0.234 C 
ATOM     56  N   ASN A   8       4.934   1.313  27.083  0.00  0.00    -0.304 N 
ATOM     57  H   ASN A   8       4.981   1.184  28.093  0.00  0.00    +0.149 HD
ATOM     58  O   GLU A   7       5.157   0.393  25.006  0.00  0.00    -0.274 OA
BRANCH  56  59
ATOM     59  CA  ASN A   8       4.561   2.643  26.611  0.00  0.00    +0.145 C 
BRANCH  59  60
ATOM     60  C   ASN A   8       5.358   3.649  27.426  0.00  0.00    +0.245 C 
ATOM     61  O   ASN A   8       5.597   4.794  27.045  0.00  0.00    -0.299 OA
ENDBRANCH  59  60
BRANCH  59  62
ATOM     62  CB  ASN A   8       3.078   2.940  26.784  0.00  0.00    +0.125 C 
BRANCH  62  63
ATOM     63  CG  ASN A   8       2.387   1.974  27.714  0.00  0.00    +0.213 C 
ATOM     64  ND2 ASN A   8       1.456   1.154  27.150  0.00  0.00    -0.329 N 
ATOM     65 HD21 ASN A   8       1.496   0.894  26.174  0.00  0.00    +0.145 HD
ATOM     66 HD22 ASN A   8       1.075   0.450  27.772  0.00  0.00    +0.145 HD
ATOM     67  OD1 ASN A   8       2.612   1.934  28.919  0.00  0.00    -0.276 OA
ENDBRANCH  62  63
ENDBRANCH  59  62
ENDBRANCH  56  59
ENDBRANCH  54  55
BRANCH  54  68
ATOM     68  CB  GLU A   7       7.026  -1.420  26.706  0.00  0.00    +0.038 C 
BRANCH  68  69
ATOM     69  CG  GLU A   7       7.965  -0.223  26.841  0.00  0.00    +0.059 C 
BRANCH  69  70
ATOM     70  CD  GLU A   7       8.783   0.021  25.595  0.00  0.00    +0.023 C 
ATOM     71  OE1 GLU A   7       9.991  -0.150  25.540  0.00  0.00    -0.851 OA
BRANCH  70  72
ATOM     72  OE2 GLU A   7       8.075   0.498  24.549  0.00  0.00    -0.526 OA
ATOM     73  HE2 GLU A   7       8.406   1.331  24.170  0.00  0.00    +0.290 HD
ENDBRANCH  70  72
ENDBRANCH  69  70
ENDBRANCH  68  69
ENDBRANCH  54  68
ENDBRANCH  52  54
ENDBRANCH  49  50
BRANCH  49  74
ATOM     74  CB  LEU A   6       1.625  -4.033  26.735  0.00  0.00    +0.034 C 
BRANCH  74  75
ATOM     75  CG  LEU A   6       2.262  -5.200  27.512  0.00  0.00    -0.015 C 
ATOM     76  CD2 LEU A   6       1.721  -6.559  27.063  0.00  0.00    +0.007 C 
ATOM     77  CD1 LEU A   6       2.011  -5.024  29.013  0.00  0.00    +0.007 C 
ENDBRANCH  74  75
ENDBRANCH  49  74
ENDBRANCH  46  49
ENDBRANCH  44  45
BRANCH  44  78
ATOM     78  CB  SER A   5       4.786  -6.880  24.300  0.00  0.00    +0.187 C 
BRANCH  78  79
ATOM     79  OG  SER A   5       5.150  -6.587  25.650  0.00  0.00    -0.393 OA
ATOM     80  H   SER A   5       6.051  -6.928  25.780  0.00  0.00    +0.209 HD
ENDBRANCH  78  79
ENDBRANCH  44  78
ENDBRANCH  42  44
ENDBRANCH   1  40
BRANCH   1  81
ATOM     81  CB  GLN A   4       7.972  -3.175  24.055  0.00  0.00    +0.041 C 
BRANCH  81  82
ATOM     82  CG  GLN A   4       9.301  -3.731  24.556  0.00  0.00    +0.098 C 
BRANCH  82  83
ATOM     83  CD  GLN A   4       9.038  -4.990  25.359  0.00  0.00    +0.211 C 
ATOM     84  OE1 GLN A   4       7.913  -5.375  25.679  0.00  0.00    -0.276 OA
ATOM     85  NE2 GLN A   4      10.150  -5.732  25.629  0.00  0.00    -0.329 N 
ATOM     86 HE21 GLN A   4      11.088  -5.425  25.396  0.00  0.00    +0.145 HD
ATOM     87 HE22 GLN A   4      10.063  -6.583  26.166  0.00  0.00    +0.145 HD
ENDBRANCH  82  83
ENDBRANCH  81  82
ENDBRANCH   1  81
TORSDOF 37
ENDMDL
MODEL 4
REMARK VINA RESULT:      -5.2      2.202      7.179
REMARK  Name = TRLQSLEN-mmff94.pdb
REMARK  42 active torsions:
REMARK  status: ('A' for Active; 'I' for Inactive)
REMARK    1  A    between atoms: _1  and  _2
REMARK    2  A    between atoms: _2  and  _3
REMARK    3  A    between atoms: _2  and  _5
REMARK    4  A    between atoms: _5  and  _6
REMARK    5  A    between atoms: _5  and  _7
REMARK    6  A    between atoms: _15  and  _16
REMARK    7  A    between atoms: _16  and  _17
REMARK    8  A    between atoms: _16  and  _19
REMARK    9  A    between atoms: _19  and  _20
REMARK   10  A    between atoms: _20  and  _21
REMARK   11  A    between atoms: _21  and  _22
REMARK   12  A    between atoms: _39  and  _40
REMARK   13  A    between atoms: _40  and  _41
REMARK   14  A    between atoms: _40  and  _43
REMARK   15  A    between atoms: _43  and  _44
REMARK   16  A    between atoms: _44  and  _45
REMARK   17  A    between atoms: _44  and  _46
REMARK   18  A    between atoms: _58  and  _59
REMARK   19  A    between atoms: _59  and  _60
REMARK   20  A    between atoms: _59  and  _62
REMARK   21  A    between atoms: _62  and  _63
REMARK   22  A    between atoms: _63  and  _64
REMARK   23  A    between atoms: _75  and  _76
REMARK   24  A    between atoms: _76  and  _77
REMARK   25  A    between atoms: _76  and  _79
REMARK   26  A    between atoms: _79  and  _80
REMARK   27  A    between atoms: _86  and  _87
REMARK   28  A    between atoms: _87  and  _88
REMARK   29  A    between atoms: _87  and  _90
REMARK   30  A    between atoms: _90  and  _91
REMARK   31  A    between atoms: _91  and  _92
REMARK   32  A    between atoms: _91  and  _93
REMARK   33  A    between atoms: _105  and  _106
REMARK   34  A    between atoms: _106  and  _107
REMARK   35  A    between atoms: _106  and  _109
REMARK   36  A    between atoms: _109  and  _110
REMARK   37  A    between atoms: _110  and  _111
REMARK   38  A    between atoms: _111  and  _112
REMARK   39  A    between atoms: _120  and  _121
REMARK   40  A    between atoms: _121  and  _122
REMARK   41  A    between atoms: _121  and  _124
REMARK   42  A    between atoms: _124  and  _125
REMARK                            x       y       z     vdW  Elec       q    Type
REMARK                         _______ _______ _______ _____ _____    ______ ____
ROOT
ATOM      1  CA  GLN A   4       3.184  -3.955  24.958  0.00  0.00    +0.159 C 
ENDROOT
BRANCH   1   3
ATOM      2  C   LEU A   3       5.054  -3.030  23.604  0.00  0.00    +0.234 C 
ATOM      3  N   GLN A   4       4.155  -4.033  23.868  0.00  0.00    -0.302 N 
ATOM      4  H   GLN A   4       4.062  -4.824  23.232  0.00  0.00    +0.150 HD
ATOM      5  O   LEU A   3       5.120  -2.003  24.283  0.00  0.00    -0.274 OA
BRANCH   2   6
ATOM      6  CA  LEU A   3       5.970  -3.279  22.386  0.00  0.00    +0.159 C 
BRANCH   6   9
ATOM      7  C   ARG A   2       6.011  -1.693  20.468  0.00  0.00    +0.234 C 
ATOM      8  O   ARG A   2       5.640  -2.531  19.649  0.00  0.00    -0.274 OA
ATOM      9  N   LEU A   3       6.237  -1.974  21.792  0.00  0.00    -0.302 N 
ATOM     10  H   LEU A   3       6.450  -1.224  22.441  0.00  0.00    +0.150 HD
BRANCH   7  11
ATOM     11  CA  ARG A   2       6.222  -0.219  20.084  0.00  0.00    +0.159 C 
BRANCH  11  13
ATOM     12  C   THR A   1       7.285   1.427  21.597  0.00  0.00    +0.233 C 
ATOM     13  N   ARG A   2       7.354   0.261  20.866  0.00  0.00    -0.303 N 
ATOM     14  H   ARG A   2       8.191  -0.314  20.876  0.00  0.00    +0.149 HD
ATOM     15  O   THR A   1       6.274   2.125  21.597  0.00  0.00    -0.274 OA
BRANCH  12  16
ATOM     16  CA  THR A   1       8.557   1.734  22.410  0.00  0.00    +0.166 C 
BRANCH  16  17
ATOM     17  N   THR A   1       9.736   1.761  21.515  0.00  0.00    -0.318 NA
ATOM     18  H1  THR A   1      10.544   1.476  22.075  0.00  0.00    +0.119 HD
ATOM     19  H2  THR A   1       9.625   1.072  20.776  0.00  0.00    +0.119 HD
ENDBRANCH  16  17
BRANCH  16  20
ATOM     20  CB  THR A   1       8.421   3.075  23.162  0.00  0.00    +0.137 C 
ATOM     21  CG2 THR A   1       9.724   3.534  23.808  0.00  0.00    +0.040 C 
BRANCH  20  22
ATOM     22  OG1 THR A   1       8.030   4.083  22.213  0.00  0.00    -0.390 OA
ATOM     23  HG1 THR A   1       8.534   3.917  21.397  0.00  0.00    +0.210 HD
ENDBRANCH  20  22
ENDBRANCH  16  20
ENDBRANCH  12  16
ENDBRANCH  11  13
BRANCH  11  24
ATOM     24  CB  ARG A   2       6.515  -0.078  18.584  0.00  0.00    +0.035 C 
BRANCH  24  25
ATOM     25  CG  ARG A   2       5.556   0.872  17.866  0.00  0.00    +0.039 C 
BRANCH  25  26
ATOM     26  CD  ARG A   2       5.107   2.010  18.779  0.00  0.00    +0.196 C 
BRANCH  26  27
ATOM     27  NE  ARG A   2       3.641   2.053  18.870  0.00  0.00    -0.279 N 
ATOM     28  HE  ARG A   2       3.089   1.753  18.071  0.00  0.00    +0.258 HD
ATOM     29  CZ  ARG A   2       2.954   2.471  19.942  0.00  0.00    +0.341 C 
ATOM     30  NH2 ARG A   2       1.622   2.529  19.889  0.00  0.00    -0.292 N 
ATOM     31 HH21 ARG A   2       1.118   2.403  19.009  0.00  0.00    +0.255 HD
ATOM     32 HH22 ARG A   2       1.067   2.790  20.691  0.00  0.00    +0.255 HD
ATOM     33  NH1 ARG A   2       3.572   2.841  21.070  0.00  0.00    -0.292 N 
ATOM     34 HH11 ARG A   2       4.580   2.821  21.146  0.00  0.00    +0.255 HD
ATOM     35 HH12 ARG A   2       3.056   3.165  21.876  0.00  0.00    +0.255 HD
ENDBRANCH  26  27
ENDBRANCH  25  26
ENDBRANCH  24  25
ENDBRANCH  11  24
ENDBRANCH   7  11
ENDBRANCH   6   9
BRANCH   6  36
ATOM     36  CB  LEU A   3       7.268  -3.972  22.821  0.00  0.00    +0.034 C 
BRANCH  36  37
ATOM     37  CG  LEU A   3       7.558  -5.304  22.101  0.00  0.00    -0.015 C 
ATOM     38  CD2 LEU A   3       7.750  -6.418  23.132  0.00  0.00    +0.007 C 
ATOM     39  CD1 LEU A   3       6.438  -5.692  21.132  0.00  0.00    +0.007 C 
ENDBRANCH  36  37
ENDBRANCH   6  36
ENDBRANCH   2   6
ENDBRANCH   1   3
BRANCH   1  40
ATOM     40  C   GLN A   4       3.990  -4.131  26.260  0.00  0.00    +0.234 C 
ATOM     41  O   GLN A   4       3.509  -3.858  27.359  0.00  0.00    -0.274 OA
ATOM     42  N   SER A   5       5.280  -4.560  26.111  0.00  0.00    -0.301 N 
ATOM     43  H   SER A   5       5.654  -4.849  25.209  0.00  0.00    +0.150 HD
BRANCH  42  44
ATOM     44  CA  SER A   5       6.217  -4.642  27.239  0.00  0.00    +0.184 C 
BRANCH  44  45
ATOM     45  C   SER A   5       7.427  -3.763  26.889  0.00  0.00    +0.236 C 
ATOM     46  N   LEU A   6       7.145  -2.440  26.663  0.00  0.00    -0.302 N 
ATOM     47  H   LEU A   6       6.215  -2.072  26.857  0.00  0.00    +0.150 HD
ATOM     48  O   SER A   5       8.557  -4.243  26.783  0.00  0.00    -0.274 OA
BRANCH  46  49
ATOM     49  CA  LEU A   6       8.163  -1.425  26.382  0.00  0.00    +0.159 C 
BRANCH  49  50
ATOM     50  C   LEU A   6       7.624  -0.106  26.977  0.00  0.00    +0.234 C 
ATOM     51  O   LEU A   6       7.744   0.159  28.174  0.00  0.00    -0.274 OA
ATOM     52  N   GLU A   7       6.973   0.716  26.094  0.00  0.00    -0.302 N 
ATOM     53  H   GLU A   7       6.894   0.459  25.113  0.00  0.00    +0.150 HD
BRANCH  52  54
ATOM     54  CA  GLU A   7       6.294   1.941  26.511  0.00  0.00    +0.159 C 
BRANCH  54  55
ATOM     55  C   GLU A   7       5.235   2.232  25.430  0.00  0.00    +0.234 C 
ATOM     56  N   ASN A   8       4.721   3.505  25.436  0.00  0.00    -0.304 N 
ATOM     57  H   ASN A   8       5.030   4.188  26.126  0.00  0.00    +0.149 HD
ATOM     58  O   GLU A   7       4.900   1.391  24.596  0.00  0.00    -0.274 OA
BRANCH  56  59
ATOM     59  CA  ASN A   8       3.698   3.947  24.494  0.00  0.00    +0.145 C 
BRANCH  59  60
ATOM     60  C   ASN A   8       4.303   5.070  23.666  0.00  0.00    +0.245 C 
ATOM     61  O   ASN A   8       5.205   4.900  22.848  0.00  0.00    -0.299 OA
ENDBRANCH  59  60
BRANCH  59  62
ATOM     62  CB  ASN A   8       2.444   4.468  25.181  0.00  0.00    +0.125 C 
BRANCH  62  63
ATOM     63  CG  ASN A   8       2.560   4.487  26.684  0.00  0.00    +0.213 C 
ATOM     64  ND2 ASN A   8       2.663   5.715  27.267  0.00  0.00    -0.329 N 
ATOM     65 HD21 ASN A   8       2.286   6.545  26.831  0.00  0.00    +0.145 HD
ATOM     66 HD22 ASN A   8       2.643   5.709  28.281  0.00  0.00    +0.145 HD
ATOM     67  OD1 ASN A   8       2.594   3.466  27.362  0.00  0.00    -0.276 OA
ENDBRANCH  62  63
ENDBRANCH  59  62
ENDBRANCH  56  59
ENDBRANCH  54  55
BRANCH  54  68
ATOM     68  CB  GLU A   7       7.292   3.102  26.647  0.00  0.00    +0.038 C 
BRANCH  68  69
ATOM     69  CG  GLU A   7       7.004   4.022  27.831  0.00  0.00    +0.059 C 
BRANCH  69  70
ATOM     70  CD  GLU A   7       6.716   3.263  29.105  0.00  0.00    +0.023 C 
ATOM     71  OE1 GLU A   7       5.621   3.252  29.646  0.00  0.00    -0.851 OA
BRANCH  70  72
ATOM     72  OE2 GLU A   7       7.785   2.630  29.631  0.00  0.00    -0.526 OA
ATOM     73  HE2 GLU A   7       8.636   2.827  29.200  0.00  0.00    +0.290 HD
ENDBRANCH  70  72
ENDBRANCH  69  70
ENDBRANCH  68  69
ENDBRANCH  54  68
ENDBRANCH  52  54
ENDBRANCH  49  50
BRANCH  49  74
ATOM     74  CB  LEU A   6       8.393  -1.232  24.872  0.00  0.00    +0.034 C 
BRANCH  74  75
ATOM     75  CG  LEU A   6       9.858  -1.298  24.399  0.00  0.00    -0.015 C 
ATOM     76  CD2 LEU A   6      10.616  -0.000  24.683  0.00  0.00    +0.007 C 
ATOM     77  CD1 LEU A   6       9.907  -1.599  22.899  0.00  0.00    +0.007 C 
ENDBRANCH  74  75
ENDBRANCH  49  74
ENDBRANCH  46  49
ENDBRANCH  44  45
BRANCH  44  78
ATOM     78  CB  SER A   5       6.653  -6.078  27.557  0.00  0.00    +0.187 C 
BRANCH  78  79
ATOM     79  OG  SER A   5       5.545  -6.979  27.549  0.00  0.00    -0.393 OA
ATOM     80  H   SER A   5       5.845  -7.800  27.975  0.00  0.00    +0.209 HD
ENDBRANCH  78  79
ENDBRANCH  44  78
ENDBRANCH  42  44
ENDBRANCH   1  40
BRANCH   1  81
ATOM     81  CB  GLN A   4       2.132  -5.064  24.811  0.00  0.00    +0.041 C 
BRANCH  81  82
ATOM     82  CG  GLN A   4       2.500  -6.357  25.531  0.00  0.00    +0.098 C 
BRANCH  82  83
ATOM     83  CD  GLN A   4       3.293  -7.240  24.586  0.00  0.00    +0.211 C 
ATOM     84  OE1 GLN A   4       4.514  -7.385  24.649  0.00  0.00    -0.276 OA
ATOM     85  NE2 GLN A   4       2.533  -7.948  23.703  0.00  0.00    -0.329 N 
ATOM     86 HE21 GLN A   4       1.530  -7.830  23.617  0.00  0.00    +0.145 HD
ATOM     87 HE22 GLN A   4       2.985  -8.555  23.033  0.00  0.00    +0.145 HD
ENDBRANCH  82  83
ENDBRANCH  81  82
ENDBRANCH   1  81
TORSDOF 37
ENDMDL
MODEL 5
REMARK VINA RESULT:      -5.1      2.197      7.391
REMARK  Name = TRLQSLEN-mmff94.pdb
REMARK  42 active torsions:
REMARK  status: ('A' for Active; 'I' for Inactive)
REMARK    1  A    between atoms: _1  and  _2
REMARK    2  A    between atoms: _2  and  _3
REMARK    3  A    between atoms: _2  and  _5
REMARK    4  A    between atoms: _5  and  _6
REMARK    5  A    between atoms: _5  and  _7
REMARK    6  A    between atoms: _15  and  _16
REMARK    7  A    between atoms: _16  and  _17
REMARK    8  A    between atoms: _16  and  _19
REMARK    9  A    between atoms: _19  and  _20
REMARK   10  A    between atoms: _20  and  _21
REMARK   11  A    between atoms: _21  and  _22
REMARK   12  A    between atoms: _39  and  _40
REMARK   13  A    between atoms: _40  and  _41
REMARK   14  A    between atoms: _40  and  _43
REMARK   15  A    between atoms: _43  and  _44
REMARK   16  A    between atoms: _44  and  _45
REMARK   17  A    between atoms: _44  and  _46
REMARK   18  A    between atoms: _58  and  _59
REMARK   19  A    between atoms: _59  and  _60
REMARK   20  A    between atoms: _59  and  _62
REMARK   21  A    between atoms: _62  and  _63
REMARK   22  A    between atoms: _63  and  _64
REMARK   23  A    between atoms: _75  and  _76
REMARK   24  A    between atoms: _76  and  _77
REMARK   25  A    between atoms: _76  and  _79
REMARK   26  A    between atoms: _79  and  _80
REMARK   27  A    between atoms: _86  and  _87
REMARK   28  A    between atoms: _87  and  _88
REMARK   29  A    between atoms: _87  and  _90
REMARK   30  A    between atoms: _90  and  _91
REMARK   31  A    between atoms: _91  and  _92
REMARK   32  A    between atoms: _91  and  _93
REMARK   33  A    between atoms: _105  and  _106
REMARK   34  A    between atoms: _106  and  _107
REMARK   35  A    between atoms: _106  and  _109
REMARK   36  A    between atoms: _109  and  _110
REMARK   37  A    between atoms: _110  and  _111
REMARK   38  A    between atoms: _111  and  _112
REMARK   39  A    between atoms: _120  and  _121
REMARK   40  A    between atoms: _121  and  _122
REMARK   41  A    between atoms: _121  and  _124
REMARK   42  A    between atoms: _124  and  _125
REMARK                            x       y       z     vdW  Elec       q    Type
REMARK                         _______ _______ _______ _____ _____    ______ ____
ROOT
ATOM      1  CA  GLN A   4       9.230  -1.069  25.455  0.00  0.00    +0.159 C 
ENDROOT
BRANCH   1   3
ATOM      2  C   LEU A   3      10.105  -0.043  23.364  0.00  0.00    +0.234 C 
ATOM      3  N   GLN A   4       9.087  -0.644  24.063  0.00  0.00    -0.302 N 
ATOM      4  H   GLN A   4       8.153  -0.710  23.662  0.00  0.00    +0.150 HD
ATOM      5  O   LEU A   3      11.218   0.159  23.855  0.00  0.00    -0.274 OA
BRANCH   2   6
ATOM      6  CA  LEU A   3       9.747   0.371  21.920  0.00  0.00    +0.159 C 
BRANCH   6   9
ATOM      7  C   ARG A   2       7.464  -0.489  21.424  0.00  0.00    +0.234 C 
ATOM      8  O   ARG A   2       6.893   0.475  21.929  0.00  0.00    -0.274 OA
ATOM      9  N   LEU A   3       8.827  -0.642  21.413  0.00  0.00    -0.302 N 
ATOM     10  H   LEU A   3       9.248  -1.410  20.899  0.00  0.00    +0.150 HD
BRANCH   7  11
ATOM     11  CA  ARG A   2       6.690  -1.610  20.711  0.00  0.00    +0.159 C 
BRANCH  11  13
ATOM     12  C   THR A   1       6.597  -3.411  22.408  0.00  0.00    +0.233 C 
ATOM     13  N   ARG A   2       5.994  -2.363  21.746  0.00  0.00    -0.303 N 
ATOM     14  H   ARG A   2       5.051  -2.067  21.984  0.00  0.00    +0.149 HD
ATOM     15  O   THR A   1       7.738  -3.771  22.132  0.00  0.00    -0.274 OA
BRANCH  12  16
ATOM     16  CA  THR A   1       5.727  -4.039  23.512  0.00  0.00    +0.166 C 
BRANCH  16  17
ATOM     17  N   THR A   1       4.660  -3.094  23.917  0.00  0.00    -0.318 NA
ATOM     18  H1  THR A   1       3.952  -3.638  24.416  0.00  0.00    +0.119 HD
ATOM     19  H2  THR A   1       5.034  -2.414  24.573  0.00  0.00    +0.119 HD
ENDBRANCH  16  17
BRANCH  16  20
ATOM     20  CB  THR A   1       5.111  -5.372  23.037  0.00  0.00    +0.137 C 
ATOM     21  CG2 THR A   1       3.599  -5.437  23.232  0.00  0.00    +0.040 C 
BRANCH  20  22
ATOM     22  OG1 THR A   1       5.372  -5.511  21.629  0.00  0.00    -0.390 OA
ATOM     23  HG1 THR A   1       5.230  -6.447  21.404  0.00  0.00    +0.210 HD
ENDBRANCH  20  22
ENDBRANCH  16  20
ENDBRANCH  12  16
ENDBRANCH  11  13
BRANCH  11  24
ATOM     24  CB  ARG A   2       5.684  -1.032  19.707  0.00  0.00    +0.035 C 
BRANCH  24  25
ATOM     25  CG  ARG A   2       6.343  -0.431  18.466  0.00  0.00    +0.039 C 
BRANCH  25  26
ATOM     26  CD  ARG A   2       6.228   1.091  18.452  0.00  0.00    +0.196 C 
BRANCH  26  27
ATOM     27  NE  ARG A   2       4.817   1.503  18.446  0.00  0.00    -0.279 N 
ATOM     28  HE  ARG A   2       4.250   1.304  17.627  0.00  0.00    +0.258 HD
ATOM     29  CZ  ARG A   2       4.205   2.141  19.452  0.00  0.00    +0.341 C 
ATOM     30  NH2 ARG A   2       2.935   2.527  19.311  0.00  0.00    -0.292 N 
ATOM     31 HH21 ARG A   2       2.461   2.479  18.406  0.00  0.00    +0.255 HD
ATOM     32 HH22 ARG A   2       2.422   2.963  20.063  0.00  0.00    +0.255 HD
ATOM     33  NH1 ARG A   2       4.836   2.410  20.601  0.00  0.00    -0.292 N 
ATOM     34 HH11 ARG A   2       5.802   2.144  20.743  0.00  0.00    +0.255 HD
ATOM     35 HH12 ARG A   2       4.378   2.899  21.357  0.00  0.00    +0.255 HD
ENDBRANCH  26  27
ENDBRANCH  25  26
ENDBRANCH  24  25
ENDBRANCH  11  24
ENDBRANCH   7  11
ENDBRANCH   6   9
BRANCH   6  36
ATOM     36  CB  LEU A   3       9.107   1.766  21.903  0.00  0.00    +0.034 C 
BRANCH  36  37
ATOM     37  CG  LEU A   3       9.402   2.622  23.150  0.00  0.00    -0.015 C 
ATOM     38  CD2 LEU A   3      10.719   3.378  22.958  0.00  0.00    +0.007 C 
ATOM     39  CD1 LEU A   3       8.279   3.619  23.444  0.00  0.00    +0.007 C 
ENDBRANCH  36  37
ENDBRANCH   6  36
ENDBRANCH   2   6
ENDBRANCH   1   3
BRANCH   1  40
ATOM     40  C   GLN A   4       8.885  -2.571  25.479  0.00  0.00    +0.234 C 
ATOM     41  O   GLN A   4       9.389  -3.362  24.682  0.00  0.00    -0.274 OA
ATOM     42  N   SER A   5       7.953  -2.956  26.403  0.00  0.00    -0.301 N 
ATOM     43  H   SER A   5       7.587  -2.313  27.103  0.00  0.00    +0.150 HD
BRANCH  42  44
ATOM     44  CA  SER A   5       7.417  -4.322  26.456  0.00  0.00    +0.184 C 
BRANCH  44  45
ATOM     45  C   SER A   5       6.186  -4.290  27.376  0.00  0.00    +0.236 C 
ATOM     46  N   LEU A   6       5.124  -3.558  26.911  0.00  0.00    -0.302 N 
ATOM     47  H   LEU A   6       5.130  -3.189  25.961  0.00  0.00    +0.150 HD
ATOM     48  O   SER A   5       6.191  -4.857  28.470  0.00  0.00    -0.274 OA
BRANCH  46  49
ATOM     49  CA  LEU A   6       3.838  -3.455  27.603  0.00  0.00    +0.159 C 
BRANCH  49  50
ATOM     50  C   LEU A   6       4.052  -2.445  28.751  0.00  0.00    +0.234 C 
ATOM     51  O   LEU A   6       3.820  -2.740  29.923  0.00  0.00    -0.274 OA
ATOM     52  N   GLU A   7       4.475  -1.199  28.367  0.00  0.00    -0.302 N 
ATOM     53  H   GLU A   7       4.655  -0.995  27.386  0.00  0.00    +0.150 HD
BRANCH  52  54
ATOM     54  CA  GLU A   7       4.610  -0.087  29.306  0.00  0.00    +0.159 C 
BRANCH  54  55
ATOM     55  C   GLU A   7       3.485   0.907  28.956  0.00  0.00    +0.234 C 
ATOM     56  N   ASN A   8       3.766   1.779  27.934  0.00  0.00    -0.304 N 
ATOM     57  H   ASN A   8       4.668   1.754  27.463  0.00  0.00    +0.149 HD
ATOM     58  O   GLU A   7       2.396   0.894  29.532  0.00  0.00    -0.274 OA
BRANCH  56  59
ATOM     59  CA  ASN A   8       2.821   2.796  27.484  0.00  0.00    +0.145 C 
BRANCH  59  60
ATOM     60  C   ASN A   8       2.307   2.362  26.121  0.00  0.00    +0.245 C 
ATOM     61  O   ASN A   8       2.941   2.511  25.078  0.00  0.00    -0.299 OA
ENDBRANCH  59  60
BRANCH  59  62
ATOM     62  CB  ASN A   8       3.454   4.175  27.351  0.00  0.00    +0.125 C 
BRANCH  62  63
ATOM     63  CG  ASN A   8       4.925   4.183  27.679  0.00  0.00    +0.213 C 
ATOM     64  ND2 ASN A   8       5.289   4.851  28.811  0.00  0.00    -0.329 N 
ATOM     65 HD21 ASN A   8       4.650   4.972  29.585  0.00  0.00    +0.145 HD
ATOM     66 HD22 ASN A   8       6.266   4.762  29.063  0.00  0.00    +0.145 HD
ATOM     67  OD1 ASN A   8       5.769   3.653  26.965  0.00  0.00    -0.276 OA
ENDBRANCH  62  63
ENDBRANCH  59  62
ENDBRANCH  56  59
ENDBRANCH  54  55
BRANCH  54  68
ATOM     68  CB  GLU A   7       5.994   0.567  29.187  0.00  0.00    +0.038 C 
BRANCH  68  69
ATOM     69  CG  GLU A   7       6.329   1.510  30.341  0.00  0.00    +0.059 C 
BRANCH  69  70
ATOM     70  CD  GLU A   7       7.678   2.171  30.182  0.00  0.00    +0.023 C 
ATOM     71  OE1 GLU A   7       7.819   3.366  29.972  0.00  0.00    -0.851 OA
BRANCH  70  72
ATOM     72  OE2 GLU A   7       8.724   1.321  30.241  0.00  0.00    -0.526 OA
ATOM     73  HE2 GLU A   7       9.293   1.309  29.450  0.00  0.00    +0.290 HD
ENDBRANCH  70  72
ENDBRANCH  69  70
ENDBRANCH  68  69
ENDBRANCH  54  68
ENDBRANCH  52  54
ENDBRANCH  49  50
BRANCH  49  74
ATOM     74  CB  LEU A   6       3.388  -4.801  28.201  0.00  0.00    +0.034 C 
BRANCH  74  75
ATOM     75  CG  LEU A   6       2.668  -5.761  27.235  0.00  0.00    -0.015 C 
ATOM     76  CD2 LEU A   6       1.456  -6.432  27.885  0.00  0.00    +0.007 C 
ATOM     77  CD1 LEU A   6       3.643  -6.835  26.746  0.00  0.00    +0.007 C 
ENDBRANCH  74  75
ENDBRANCH  49  74
ENDBRANCH  46  49
ENDBRANCH  44  45
BRANCH  44  78
ATOM     78  CB  SER A   5       8.442  -5.354  26.943  0.00  0.00    +0.187 C 
BRANCH  78  79
ATOM     79  OG  SER A   5       9.084  -6.013  25.852  0.00  0.00    -0.393 OA
ATOM     80  H   SER A   5       9.075  -6.964  26.051  0.00  0.00    +0.209 HD
ENDBRANCH  78  79
ENDBRANCH  44  78
ENDBRANCH  42  44
ENDBRANCH   1  40
BRANCH   1  81
ATOM     81  CB  GLN A   4       8.274  -0.273  26.354  0.00  0.00    +0.041 C 
BRANCH  81  82
ATOM     82  CG  GLN A   4       7.437   0.755  25.599  0.00  0.00    +0.098 C 
BRANCH  82  83
ATOM     83  CD  GLN A   4       6.086   0.147  25.271  0.00  0.00    +0.211 C 
ATOM     84  OE1 GLN A   4       5.703  -0.941  25.705  0.00  0.00    -0.276 OA
ATOM     85  NE2 GLN A   4       5.273   0.946  24.524  0.00  0.00    -0.329 N 
ATOM     86 HE21 GLN A   4       5.573   1.834  24.138  0.00  0.00    +0.145 HD
ATOM     87 HE22 GLN A   4       4.358   0.612  24.256  0.00  0.00    +0.145 HD
ENDBRANCH  82  83
ENDBRANCH  81  82
ENDBRANCH   1  81
TORSDOF 37
ENDMDL
MODEL 6
REMARK VINA RESULT:      -5.1      2.448      8.130
REMARK  Name = TRLQSLEN-mmff94.pdb
REMARK  42 active torsions:
REMARK  status: ('A' for Active; 'I' for Inactive)
REMARK    1  A    between atoms: _1  and  _2
REMARK    2  A    between atoms: _2  and  _3
REMARK    3  A    between atoms: _2  and  _5
REMARK    4  A    between atoms: _5  and  _6
REMARK    5  A    between atoms: _5  and  _7
REMARK    6  A    between atoms: _15  and  _16
REMARK    7  A    between atoms: _16  and  _17
REMARK    8  A    between atoms: _16  and  _19
REMARK    9  A    between atoms: _19  and  _20
REMARK   10  A    between atoms: _20  and  _21
REMARK   11  A    between atoms: _21  and  _22
REMARK   12  A    between atoms: _39  and  _40
REMARK   13  A    between atoms: _40  and  _41
REMARK   14  A    between atoms: _40  and  _43
REMARK   15  A    between atoms: _43  and  _44
REMARK   16  A    between atoms: _44  and  _45
REMARK   17  A    between atoms: _44  and  _46
REMARK   18  A    between atoms: _58  and  _59
REMARK   19  A    between atoms: _59  and  _60
REMARK   20  A    between atoms: _59  and  _62
REMARK   21  A    between atoms: _62  and  _63
REMARK   22  A    between atoms: _63  and  _64
REMARK   23  A    between atoms: _75  and  _76
REMARK   24  A    between atoms: _76  and  _77
REMARK   25  A    between atoms: _76  and  _79
REMARK   26  A    between atoms: _79  and  _80
REMARK   27  A    between atoms: _86  and  _87
REMARK   28  A    between atoms: _87  and  _88
REMARK   29  A    between atoms: _87  and  _90
REMARK   30  A    between atoms: _90  and  _91
REMARK   31  A    between atoms: _91  and  _92
REMARK   32  A    between atoms: _91  and  _93
REMARK   33  A    between atoms: _105  and  _106
REMARK   34  A    between atoms: _106  and  _107
REMARK   35  A    between atoms: _106  and  _109
REMARK   36  A    between atoms: _109  and  _110
REMARK   37  A    between atoms: _110  and  _111
REMARK   38  A    between atoms: _111  and  _112
REMARK   39  A    between atoms: _120  and  _121
REMARK   40  A    between atoms: _121  and  _122
REMARK   41  A    between atoms: _121  and  _124
REMARK   42  A    between atoms: _124  and  _125
REMARK                            x       y       z     vdW  Elec       q    Type
REMARK                         _______ _______ _______ _____ _____    ______ ____
ROOT
ATOM      1  CA  GLN A   4       3.390   3.791  26.317  0.00  0.00    +0.159 C 
ENDROOT
BRANCH   1   3
ATOM      2  C   LEU A   3       3.324   1.348  26.784  0.00  0.00    +0.234 C 
ATOM      3  N   GLN A   4       4.009   2.538  26.748  0.00  0.00    -0.302 N 
ATOM      4  H   GLN A   4       4.950   2.605  27.132  0.00  0.00    +0.150 HD
ATOM      5  O   LEU A   3       2.146   1.250  26.435  0.00  0.00    -0.274 OA
BRANCH   2   6
ATOM      6  CA  LEU A   3       4.138   0.144  27.308  0.00  0.00    +0.159 C 
BRANCH   6   9
ATOM      7  C   ARG A   2       3.437  -2.180  27.857  0.00  0.00    +0.234 C 
ATOM      8  O   ARG A   2       4.315  -2.341  28.704  0.00  0.00    -0.274 OA
ATOM      9  N   LEU A   3       3.306  -1.037  27.110  0.00  0.00    -0.302 N 
ATOM     10  H   LEU A   3       2.507  -0.923  26.494  0.00  0.00    +0.150 HD
BRANCH   7  11
ATOM     11  CA  ARG A   2       2.367  -3.249  27.584  0.00  0.00    +0.159 C 
BRANCH  11  13
ATOM     12  C   THR A   1       3.285  -4.234  25.506  0.00  0.00    +0.233 C 
ATOM     13  N   ARG A   2       3.026  -4.326  26.856  0.00  0.00    -0.303 N 
ATOM     14  H   ARG A   2       3.315  -5.141  27.390  0.00  0.00    +0.149 HD
ATOM     15  O   THR A   1       2.946  -3.250  24.854  0.00  0.00    -0.274 OA
BRANCH  12  16
ATOM     16  CA  THR A   1       4.046  -5.443  24.930  0.00  0.00    +0.166 C 
BRANCH  16  17
ATOM     17  N   THR A   1       4.900  -6.050  25.977  0.00  0.00    -0.318 NA
ATOM     18  H1  THR A   1       5.749  -6.385  25.514  0.00  0.00    +0.119 HD
ATOM     19  H2  THR A   1       5.184  -5.340  26.646  0.00  0.00    +0.119 HD
ENDBRANCH  16  17
BRANCH  16  20
ATOM     20  CB  THR A   1       3.067  -6.491  24.360  0.00  0.00    +0.137 C 
ATOM     21  CG2 THR A   1       2.452  -6.076  23.028  0.00  0.00    +0.040 C 
BRANCH  20  22
ATOM     22  OG1 THR A   1       3.796  -7.712  24.139  0.00  0.00    -0.390 OA
ATOM     23  HG1 THR A   1       3.195  -8.445  24.358  0.00  0.00    +0.210 HD
ENDBRANCH  20  22
ENDBRANCH  16  20
ENDBRANCH  12  16
ENDBRANCH  11  13
BRANCH  11  24
ATOM     24  CB  ARG A   2       1.772  -3.780  28.894  0.00  0.00    +0.035 C 
BRANCH  24  25
ATOM     25  CG  ARG A   2       1.676  -5.306  28.942  0.00  0.00    +0.039 C 
BRANCH  25  26
ATOM     26  CD  ARG A   2       2.550  -5.887  30.050  0.00  0.00    +0.196 C 
BRANCH  26  27
ATOM     27  NE  ARG A   2       3.511  -6.853  29.498  0.00  0.00    -0.279 N 
ATOM     28  HE  ARG A   2       3.219  -7.818  29.367  0.00  0.00    +0.258 HD
ATOM     29  CZ  ARG A   2       4.771  -6.562  29.149  0.00  0.00    +0.341 C 
ATOM     30  NH2 ARG A   2       5.577  -7.535  28.719  0.00  0.00    -0.292 N 
ATOM     31 HH21 ARG A   2       5.306  -8.518  28.784  0.00  0.00    +0.255 HD
ATOM     32 HH22 ARG A   2       6.516  -7.348  28.398  0.00  0.00    +0.255 HD
ATOM     33  NH1 ARG A   2       5.250  -5.315  29.227  0.00  0.00    -0.292 N 
ATOM     34 HH11 ARG A   2       4.675  -4.552  29.558  0.00  0.00    +0.255 HD
ATOM     35 HH12 ARG A   2       6.204  -5.095  28.974  0.00  0.00    +0.255 HD
ENDBRANCH  26  27
ENDBRANCH  25  26
ENDBRANCH  24  25
ENDBRANCH  11  24
ENDBRANCH   7  11
ENDBRANCH   6   9
BRANCH   6  36
ATOM     36  CB  LEU A   3       5.468   0.025  26.552  0.00  0.00    +0.034 C 
BRANCH  36  37
ATOM     37  CG  LEU A   3       6.694   0.550  27.324  0.00  0.00    -0.015 C 
ATOM     38  CD2 LEU A   3       6.323   0.774  28.792  0.00  0.00    +0.007 C 
ATOM     39  CD1 LEU A   3       7.884  -0.409  27.239  0.00  0.00    +0.007 C 
ENDBRANCH  36  37
ENDBRANCH   6  36
ENDBRANCH   2   6
ENDBRANCH   1   3
BRANCH   1  40
ATOM     40  C   GLN A   4       3.808   3.988  24.847  0.00  0.00    +0.234 C 
ATOM     41  O   GLN A   4       2.978   4.183  23.960  0.00  0.00    -0.274 OA
ATOM     42  N   SER A   5       5.147   3.883  24.586  0.00  0.00    -0.301 N 
ATOM     43  H   SER A   5       5.838   3.788  25.329  0.00  0.00    +0.150 HD
BRANCH  42  44
ATOM     44  CA  SER A   5       5.687   3.907  23.221  0.00  0.00    +0.184 C 
BRANCH  44  45
ATOM     45  C   SER A   5       6.146   2.479  22.889  0.00  0.00    +0.236 C 
ATOM     46  N   LEU A   6       6.432   2.246  21.568  0.00  0.00    -0.302 N 
ATOM     47  H   LEU A   6       6.462   3.018  20.904  0.00  0.00    +0.150 HD
ATOM     48  O   SER A   5       6.204   1.608  23.759  0.00  0.00    -0.274 OA
BRANCH  46  49
ATOM     49  CA  LEU A   6       6.947   0.974  21.056  0.00  0.00    +0.159 C 
BRANCH  49  50
ATOM     50  C   LEU A   6       8.367   0.824  21.643  0.00  0.00    +0.234 C 
ATOM     51  O   LEU A   6       9.320   1.464  21.199  0.00  0.00    -0.274 OA
ATOM     52  N   GLU A   7       8.493  -0.095  22.653  0.00  0.00    -0.302 N 
ATOM     53  H   GLU A   7       7.680  -0.605  22.991  0.00  0.00    +0.150 HD
BRANCH  52  54
ATOM     54  CA  GLU A   7       9.784  -0.454  23.237  0.00  0.00    +0.159 C 
BRANCH  54  55
ATOM     55  C   GLU A   7       9.705  -1.959  23.557  0.00  0.00    +0.234 C 
ATOM     56  N   ASN A   8       8.523  -2.383  24.110  0.00  0.00    -0.304 N 
ATOM     57  H   ASN A   8       7.769  -1.723  24.295  0.00  0.00    +0.149 HD
ATOM     58  O   GLU A   7      10.627  -2.734  23.300  0.00  0.00    -0.274 OA
BRANCH  56  59
ATOM     59  CA  ASN A   8       8.283  -3.771  24.491  0.00  0.00    +0.145 C 
BRANCH  59  60
ATOM     60  C   ASN A   8       7.378  -4.379  23.430  0.00  0.00    +0.245 C 
ATOM     61  O   ASN A   8       6.836  -3.722  22.544  0.00  0.00    -0.299 OA
ENDBRANCH  59  60
BRANCH  59  62
ATOM     62  CB  ASN A   8       7.604  -3.906  25.847  0.00  0.00    +0.125 C 
BRANCH  62  63
ATOM     63  CG  ASN A   8       8.274  -4.917  26.743  0.00  0.00    +0.213 C 
ATOM     64  ND2 ASN A   8       9.635  -4.959  26.695  0.00  0.00    -0.329 N 
ATOM     65 HD21 ASN A   8      10.184  -4.152  26.432  0.00  0.00    +0.145 HD
ATOM     66 HD22 ASN A   8      10.067  -5.576  27.373  0.00  0.00    +0.145 HD
ATOM     67  OD1 ASN A   8       7.647  -5.690  27.460  0.00  0.00    -0.276 OA
ENDBRANCH  62  63
ENDBRANCH  59  62
ENDBRANCH  56  59
ENDBRANCH  54  55
BRANCH  54  68
ATOM     68  CB  GLU A   7      10.064   0.375  24.499  0.00  0.00    +0.038 C 
BRANCH  68  69
ATOM     69  CG  GLU A   7      10.767   1.702  24.219  0.00  0.00    +0.059 C 
BRANCH  69  70
ATOM     70  CD  GLU A   7       9.810   2.869  24.161  0.00  0.00    +0.023 C 
ATOM     71  OE1 GLU A   7       8.921   3.049  24.979  0.00  0.00    -0.851 OA
BRANCH  70  72
ATOM     72  OE2 GLU A   7       9.983   3.679  23.096  0.00  0.00    -0.526 OA
ATOM     73  HE2 GLU A   7      10.902   3.950  22.926  0.00  0.00    +0.290 HD
ENDBRANCH  70  72
ENDBRANCH  69  70
ENDBRANCH  68  69
ENDBRANCH  54  68
ENDBRANCH  52  54
ENDBRANCH  49  50
BRANCH  49  74
ATOM     74  CB  LEU A   6       7.038   0.957  19.520  0.00  0.00    +0.034 C 
BRANCH  74  75
ATOM     75  CG  LEU A   6       6.564  -0.337  18.831  0.00  0.00    -0.015 C 
ATOM     76  CD2 LEU A   6       5.595  -0.058  17.681  0.00  0.00    +0.007 C 
ATOM     77  CD1 LEU A   6       5.888  -1.254  19.854  0.00  0.00    +0.007 C 
ENDBRANCH  74  75
ENDBRANCH  49  74
ENDBRANCH  46  49
ENDBRANCH  44  45
BRANCH  44  78
ATOM     78  CB  SER A   5       6.834   4.909  23.042  0.00  0.00    +0.187 C 
BRANCH  78  79
ATOM     79  OG  SER A   5       7.374   4.862  21.721  0.00  0.00    -0.393 OA
ATOM     80  H   SER A   5       7.076   5.668  21.265  0.00  0.00    +0.209 HD
ENDBRANCH  78  79
ENDBRANCH  44  78
ENDBRANCH  42  44
ENDBRANCH   1  40
BRANCH   1  81
ATOM     81  CB  GLN A   4       3.886   4.954  27.188  0.00  0.00    +0.041 C 
BRANCH  81  82
ATOM     82  CG  GLN A   4       4.654   4.507  28.428  0.00  0.00    +0.098 C 
BRANCH  82  83
ATOM     83  CD  GLN A   4       6.142   4.624  28.156  0.00  0.00    +0.211 C 
ATOM     84  OE1 GLN A   4       6.679   4.238  27.116  0.00  0.00    -0.276 OA
ATOM     85  NE2 GLN A   4       6.843   5.283  29.121  0.00  0.00    -0.329 N 
ATOM     86 HE21 GLN A   4       6.428   5.590  29.993  0.00  0.00    +0.145 HD
ATOM     87 HE22 GLN A   4       7.842   5.398  29.020  0.00  0.00    +0.145 HD
ENDBRANCH  82  83
ENDBRANCH  81  82
ENDBRANCH   1  81
TORSDOF 37
ENDMDL
MODEL 7
REMARK VINA RESULT:      -5.0      2.388      7.514
REMARK  Name = TRLQSLEN-mmff94.pdb
REMARK  42 active torsions:
REMARK  status: ('A' for Active; 'I' for Inactive)
REMARK    1  A    between atoms: _1  and  _2
REMARK    2  A    between atoms: _2  and  _3
REMARK    3  A    between atoms: _2  and  _5
REMARK    4  A    between atoms: _5  and  _6
REMARK    5  A    between atoms: _5  and  _7
REMARK    6  A    between atoms: _15  and  _16
REMARK    7  A    between atoms: _16  and  _17
REMARK    8  A    between atoms: _16  and  _19
REMARK    9  A    between atoms: _19  and  _20
REMARK   10  A    between atoms: _20  and  _21
REMARK   11  A    between atoms: _21  and  _22
REMARK   12  A    between atoms: _39  and  _40
REMARK   13  A    between atoms: _40  and  _41
REMARK   14  A    between atoms: _40  and  _43
REMARK   15  A    between atoms: _43  and  _44
REMARK   16  A    between atoms: _44  and  _45
REMARK   17  A    between atoms: _44  and  _46
REMARK   18  A    between atoms: _58  and  _59
REMARK   19  A    between atoms: _59  and  _60
REMARK   20  A    between atoms: _59  and  _62
REMARK   21  A    between atoms: _62  and  _63
REMARK   22  A    between atoms: _63  and  _64
REMARK   23  A    between atoms: _75  and  _76
REMARK   24  A    between atoms: _76  and  _77
REMARK   25  A    between atoms: _76  and  _79
REMARK   26  A    between atoms: _79  and  _80
REMARK   27  A    between atoms: _86  and  _87
REMARK   28  A    between atoms: _87  and  _88
REMARK   29  A    between atoms: _87  and  _90
REMARK   30  A    between atoms: _90  and  _91
REMARK   31  A    between atoms: _91  and  _92
REMARK   32  A    between atoms: _91  and  _93
REMARK   33  A    between atoms: _105  and  _106
REMARK   34  A    between atoms: _106  and  _107
REMARK   35  A    between atoms: _106  and  _109
REMARK   36  A    between atoms: _109  and  _110
REMARK   37  A    between atoms: _110  and  _111
REMARK   38  A    between atoms: _111  and  _112
REMARK   39  A    between atoms: _120  and  _121
REMARK   40  A    between atoms: _121  and  _122
REMARK   41  A    between atoms: _121  and  _124
REMARK   42  A    between atoms: _124  and  _125
REMARK                            x       y       z     vdW  Elec       q    Type
REMARK                         _______ _______ _______ _____ _____    ______ ____
ROOT
ATOM      1  CA  GLN A   4       8.345  -4.366  24.543  0.00  0.00    +0.159 C 
ENDROOT
BRANCH   1   3
ATOM      2  C   LEU A   3       7.311  -5.321  26.595  0.00  0.00    +0.234 C 
ATOM      3  N   GLN A   4       7.298  -4.415  25.563  0.00  0.00    -0.302 N 
ATOM      4  H   GLN A   4       6.489  -3.815  25.412  0.00  0.00    +0.150 HD
ATOM      5  O   LEU A   3       8.219  -6.142  26.745  0.00  0.00    -0.274 OA
BRANCH   2   6
ATOM      6  CA  LEU A   3       6.097  -5.242  27.546  0.00  0.00    +0.159 C 
BRANCH   6   9
ATOM      7  C   ARG A   2       4.385  -3.765  26.507  0.00  0.00    +0.234 C 
ATOM      8  O   ARG A   2       4.785  -2.750  27.073  0.00  0.00    -0.274 OA
ATOM      9  N   LEU A   3       4.927  -5.009  26.707  0.00  0.00    -0.302 N 
ATOM     10  H   LEU A   3       4.619  -5.794  26.142  0.00  0.00    +0.150 HD
BRANCH   7  11
ATOM     11  CA  ARG A   2       3.246  -3.724  25.474  0.00  0.00    +0.159 C 
BRANCH  11  13
ATOM     12  C   THR A   1       2.322  -5.609  24.161  0.00  0.00    +0.233 C 
ATOM     13  N   ARG A   2       2.726  -5.081  25.369  0.00  0.00    -0.303 N 
ATOM     14  H   ARG A   2       2.700  -5.638  26.218  0.00  0.00    +0.149 HD
ATOM     15  O   THR A   1       2.357  -4.946  23.128  0.00  0.00    -0.274 OA
BRANCH  12  16
ATOM     16  CA  THR A   1       1.865  -7.078  24.240  0.00  0.00    +0.166 C 
BRANCH  16  17
ATOM     17  N   THR A   1       2.604  -7.892  23.248  0.00  0.00    -0.318 NA
ATOM     18  H1  THR A   1       3.564  -7.983  23.590  0.00  0.00    +0.119 HD
ATOM     19  H2  THR A   1       2.210  -8.828  23.208  0.00  0.00    +0.119 HD
ENDBRANCH  16  17
BRANCH  16  20
ATOM     20  CB  THR A   1       2.073  -7.644  25.661  0.00  0.00    +0.137 C 
ATOM     21  CG2 THR A   1       1.494  -9.043  25.839  0.00  0.00    +0.040 C 
BRANCH  20  22
ATOM     22  OG1 THR A   1       3.488  -7.727  25.909  0.00  0.00    -0.390 OA
ATOM     23  HG1 THR A   1       3.824  -8.480  25.392  0.00  0.00    +0.210 HD
ENDBRANCH  20  22
ENDBRANCH  16  20
ENDBRANCH  12  16
ENDBRANCH  11  13
BRANCH  11  24
ATOM     24  CB  ARG A   2       2.135  -2.763  25.918  0.00  0.00    +0.035 C 
BRANCH  24  25
ATOM     25  CG  ARG A   2       1.666  -3.001  27.354  0.00  0.00    +0.039 C 
BRANCH  25  26
ATOM     26  CD  ARG A   2       1.455  -1.686  28.099  0.00  0.00    +0.196 C 
BRANCH  26  27
ATOM     27  NE  ARG A   2       1.997  -0.560  27.325  0.00  0.00    -0.279 N 
ATOM     28  HE  ARG A   2       1.433  -0.156  26.583  0.00  0.00    +0.258 HD
ATOM     29  CZ  ARG A   2       3.205  -0.013  27.518  0.00  0.00    +0.341 C 
ATOM     30  NH2 ARG A   2       3.621   0.965  26.711  0.00  0.00    -0.292 N 
ATOM     31 HH21 ARG A   2       3.107   1.211  25.862  0.00  0.00    +0.255 HD
ATOM     32 HH22 ARG A   2       4.502   1.438  26.855  0.00  0.00    +0.255 HD
ATOM     33  NH1 ARG A   2       4.014  -0.427  28.500  0.00  0.00    -0.292 N 
ATOM     34 HH11 ARG A   2       3.739  -1.173  29.126  0.00  0.00    +0.255 HD
ATOM     35 HH12 ARG A   2       4.929  -0.022  28.641  0.00  0.00    +0.255 HD
ENDBRANCH  26  27
ENDBRANCH  25  26
ENDBRANCH  24  25
ENDBRANCH  11  24
ENDBRANCH   7  11
ENDBRANCH   6   9
BRANCH   6  36
ATOM     36  CB  LEU A   3       5.959  -6.542  28.351  0.00  0.00    +0.034 C 
BRANCH  36  37
ATOM     37  CG  LEU A   3       5.040  -6.438  29.584  0.00  0.00    -0.015 C 
ATOM     38  CD2 LEU A   3       5.104  -5.020  30.158  0.00  0.00    +0.007 C 
ATOM     39  CD1 LEU A   3       3.588  -6.789  29.254  0.00  0.00    +0.007 C 
ENDBRANCH  36  37
ENDBRANCH   6  36
ENDBRANCH   2   6
ENDBRANCH   1   3
BRANCH   1  40
ATOM     40  C   GLN A   4       8.988  -2.971  24.660  0.00  0.00    +0.234 C 
ATOM     41  O   GLN A   4      10.036  -2.692  24.079  0.00  0.00    -0.274 OA
ATOM     42  N   SER A   5       8.351  -2.085  25.485  0.00  0.00    -0.301 N 
ATOM     43  H   SER A   5       7.450  -2.295  25.912  0.00  0.00    +0.150 HD
BRANCH  42  44
ATOM     44  CA  SER A   5       8.913  -0.768  25.810  0.00  0.00    +0.184 C 
BRANCH  44  45
ATOM     45  C   SER A   5       7.769   0.086  26.379  0.00  0.00    +0.236 C 
ATOM     46  N   LEU A   6       7.747   1.391  25.959  0.00  0.00    -0.302 N 
ATOM     47  H   LEU A   6       8.372   1.704  25.218  0.00  0.00    +0.150 HD
ATOM     48  O   SER A   5       6.964  -0.380  27.187  0.00  0.00    -0.274 OA
BRANCH  46  49
ATOM     49  CA  LEU A   6       6.704   2.350  26.331  0.00  0.00    +0.159 C 
BRANCH  49  50
ATOM     50  C   LEU A   6       6.149   2.911  25.003  0.00  0.00    +0.234 C 
ATOM     51  O   LEU A   6       4.975   3.262  24.891  0.00  0.00    -0.274 OA
ATOM     52  N   GLU A   7       7.040   2.947  23.961  0.00  0.00    -0.302 N 
ATOM     53  H   GLU A   7       8.003   2.646  24.095  0.00  0.00    +0.150 HD
BRANCH  52  54
ATOM     54  CA  GLU A   7       6.653   3.330  22.605  0.00  0.00    +0.159 C 
BRANCH  54  55
ATOM     55  C   GLU A   7       7.213   2.236  21.675  0.00  0.00    +0.234 C 
ATOM     56  N   ASN A   8       6.283   1.583  20.906  0.00  0.00    -0.304 N 
ATOM     57  H   ASN A   8       5.294   1.820  20.973  0.00  0.00    +0.149 HD
ATOM     58  O   GLU A   7       8.418   1.991  21.603  0.00  0.00    -0.274 OA
BRANCH  56  59
ATOM     59  CA  ASN A   8       6.636   0.510  19.983  0.00  0.00    +0.145 C 
BRANCH  59  60
ATOM     60  C   ASN A   8       5.744   0.655  18.760  0.00  0.00    +0.245 C 
ATOM     61  O   ASN A   8       6.175   0.729  17.611  0.00  0.00    -0.299 OA
ENDBRANCH  59  60
BRANCH  59  62
ATOM     62  CB  ASN A   8       6.428  -0.876  20.578  0.00  0.00    +0.125 C 
BRANCH  62  63
ATOM     63  CG  ASN A   8       7.257  -1.119  21.814  0.00  0.00    +0.213 C 
ATOM     64  ND2 ASN A   8       8.576  -1.398  21.611  0.00  0.00    -0.329 N 
ATOM     65 HD21 ASN A   8       9.068  -1.075  20.790  0.00  0.00    +0.145 HD
ATOM     66 HD22 ASN A   8       9.133  -1.462  22.456  0.00  0.00    +0.145 HD
ATOM     67  OD1 ASN A   8       6.785  -1.102  22.945  0.00  0.00    -0.276 OA
ENDBRANCH  62  63
ENDBRANCH  59  62
ENDBRANCH  56  59
ENDBRANCH  54  55
BRANCH  54  68
ATOM     68  CB  GLU A   7       7.213   4.714  22.246  0.00  0.00    +0.038 C 
BRANCH  68  69
ATOM     69  CG  GLU A   7       7.635   5.540  23.459  0.00  0.00    +0.059 C 
BRANCH  69  70
ATOM     70  CD  GLU A   7       9.016   5.185  23.955  0.00  0.00    +0.023 C 
ATOM     71  OE1 GLU A   7       9.452   5.539  25.040  0.00  0.00    -0.851 OA
BRANCH  70  72
ATOM     72  OE2 GLU A   7       9.760   4.481  23.076  0.00  0.00    -0.526 OA
ATOM     73  HE2 GLU A   7      10.207   5.012  22.393  0.00  0.00    +0.290 HD
ENDBRANCH  70  72
ENDBRANCH  69  70
ENDBRANCH  68  69
ENDBRANCH  54  68
ENDBRANCH  52  54
ENDBRANCH  49  50
BRANCH  49  74
ATOM     74  CB  LEU A   6       7.256   3.516  27.171  0.00  0.00    +0.034 C 
BRANCH  74  75
ATOM     75  CG  LEU A   6       6.703   3.635  28.604  0.00  0.00    -0.015 C 
ATOM     76  CD2 LEU A   6       6.212   2.292  29.147  0.00  0.00    +0.007 C 
ATOM     77  CD1 LEU A   6       5.555   4.648  28.636  0.00  0.00    +0.007 C 
ENDBRANCH  74  75
ENDBRANCH  49  74
ENDBRANCH  46  49
ENDBRANCH  44  45
BRANCH  44  78
ATOM     78  CB  SER A   5       9.569  -0.079  24.607  0.00  0.00    +0.187 C 
BRANCH  78  79
ATOM     79  OG  SER A   5      10.399   1.010  25.013  0.00  0.00    -0.393 OA
ATOM     80  H   SER A   5      10.248   1.732  24.380  0.00  0.00    +0.209 HD
ENDBRANCH  78  79
ENDBRANCH  44  78
ENDBRANCH  42  44
ENDBRANCH   1  40
BRANCH   1  81
ATOM     81  CB  GLN A   4       7.737  -4.573  23.149  0.00  0.00    +0.041 C 
BRANCH  81  82
ATOM     82  CG  GLN A   4       6.217  -4.452  23.119  0.00  0.00    +0.098 C 
BRANCH  82  83
ATOM     83  CD  GLN A   4       5.612  -5.841  23.045  0.00  0.00    +0.211 C 
ATOM     84  OE1 GLN A   4       5.424  -6.558  24.029  0.00  0.00    -0.276 OA
ATOM     85  NE2 GLN A   4       5.198  -6.212  21.800  0.00  0.00    -0.329 N 
ATOM     86 HE21 GLN A   4       5.361  -5.650  20.973  0.00  0.00    +0.145 HD
ATOM     87 HE22 GLN A   4       4.790  -7.126  21.664  0.00  0.00    +0.145 HD
ENDBRANCH  82  83
ENDBRANCH  81  82
ENDBRANCH   1  81
TORSDOF 37
ENDMDL
MODEL 8
REMARK VINA RESULT:      -5.0      2.489      6.649
REMARK  Name = TRLQSLEN-mmff94.pdb
REMARK  42 active torsions:
REMARK  status: ('A' for Active; 'I' for Inactive)
REMARK    1  A    between atoms: _1  and  _2
REMARK    2  A    between atoms: _2  and  _3
REMARK    3  A    between atoms: _2  and  _5
REMARK    4  A    between atoms: _5  and  _6
REMARK    5  A    between atoms: _5  and  _7
REMARK    6  A    between atoms: _15  and  _16
REMARK    7  A    between atoms: _16  and  _17
REMARK    8  A    between atoms: _16  and  _19
REMARK    9  A    between atoms: _19  and  _20
REMARK   10  A    between atoms: _20  and  _21
REMARK   11  A    between atoms: _21  and  _22
REMARK   12  A    between atoms: _39  and  _40
REMARK   13  A    between atoms: _40  and  _41
REMARK   14  A    between atoms: _40  and  _43
REMARK   15  A    between atoms: _43  and  _44
REMARK   16  A    between atoms: _44  and  _45
REMARK   17  A    between atoms: _44  and  _46
REMARK   18  A    between atoms: _58  and  _59
REMARK   19  A    between atoms: _59  and  _60
REMARK   20  A    between atoms: _59  and  _62
REMARK   21  A    between atoms: _62  and  _63
REMARK   22  A    between atoms: _63  and  _64
REMARK   23  A    between atoms: _75  and  _76
REMARK   24  A    between atoms: _76  and  _77
REMARK   25  A    between atoms: _76  and  _79
REMARK   26  A    between atoms: _79  and  _80
REMARK   27  A    between atoms: _86  and  _87
REMARK   28  A    between atoms: _87  and  _88
REMARK   29  A    between atoms: _87  and  _90
REMARK   30  A    between atoms: _90  and  _91
REMARK   31  A    between atoms: _91  and  _92
REMARK   32  A    between atoms: _91  and  _93
REMARK   33  A    between atoms: _105  and  _106
REMARK   34  A    between atoms: _106  and  _107
REMARK   35  A    between atoms: _106  and  _109
REMARK   36  A    between atoms: _109  and  _110
REMARK   37  A    between atoms: _110  and  _111
REMARK   38  A    between atoms: _111  and  _112
REMARK   39  A    between atoms: _120  and  _121
REMARK   40  A    between atoms: _121  and  _122
REMARK   41  A    between atoms: _121  and  _124
REMARK   42  A    between atoms: _124  and  _125
REMARK                            x       y       z     vdW  Elec       q    Type
REMARK                         _______ _______ _______ _____ _____    ______ ____
ROOT
ATOM      1  CA  GLN A   4       7.269  -0.694  21.937  0.00  0.00    +0.159 C 
ENDROOT
BRANCH   1   3
ATOM      2  C   LEU A   3       6.527   1.134  23.453  0.00  0.00    +0.234 C 
ATOM      3  N   GLN A   4       6.542  -0.193  23.103  0.00  0.00    -0.302 N 
ATOM      4  H   GLN A   4       6.133  -0.895  23.718  0.00  0.00    +0.150 HD
ATOM      5  O   LEU A   3       7.108   2.000  22.795  0.00  0.00    -0.274 OA
BRANCH   2   6
ATOM      6  CA  LEU A   3       5.738   1.460  24.740  0.00  0.00    +0.159 C 
BRANCH   6   9
ATOM      7  C   ARG A   2       4.137   3.343  24.443  0.00  0.00    +0.234 C 
ATOM      8  O   ARG A   2       4.862   4.166  24.999  0.00  0.00    -0.274 OA
ATOM      9  N   LEU A   3       4.458   2.016  24.313  0.00  0.00    -0.302 N 
ATOM     10  H   LEU A   3       3.867   1.402  23.762  0.00  0.00    +0.150 HD
BRANCH   7  11
ATOM     11  CA  ARG A   2       2.800   3.743  23.798  0.00  0.00    +0.159 C 
BRANCH  11  13
ATOM     12  C   THR A   1       2.627   3.749  21.328  0.00  0.00    +0.233 C 
ATOM     13  N   ARG A   2       2.731   3.056  22.515  0.00  0.00    -0.303 N 
ATOM     14  H   ARG A   2       2.793   2.042  22.525  0.00  0.00    +0.149 HD
ATOM     15  O   THR A   1       2.559   4.975  21.306  0.00  0.00    -0.274 OA
BRANCH  12  16
ATOM     16  CA  THR A   1       2.635   2.853  20.076  0.00  0.00    +0.166 C 
BRANCH  16  17
ATOM     17  N   THR A   1       2.618   3.689  18.853  0.00  0.00    -0.318 NA
ATOM     18  H1  THR A   1       3.027   3.128  18.101  0.00  0.00    +0.119 HD
ATOM     19  H2  THR A   1       1.659   3.893  18.588  0.00  0.00    +0.119 HD
ENDBRANCH  16  17
BRANCH  16  20
ATOM     20  CB  THR A   1       3.864   1.920  20.072  0.00  0.00    +0.137 C 
ATOM     21  CG2 THR A   1       4.382   1.615  18.671  0.00  0.00    +0.040 C 
BRANCH  20  22
ATOM     22  OG1 THR A   1       4.925   2.574  20.792  0.00  0.00    -0.390 OA
ATOM     23  HG1 THR A   1       5.621   2.785  20.145  0.00  0.00    +0.210 HD
ENDBRANCH  20  22
ENDBRANCH  16  20
ENDBRANCH  12  16
ENDBRANCH  11  13
BRANCH  11  24
ATOM     24  CB  ARG A   2       1.617   3.332  24.684  0.00  0.00    +0.035 C 
BRANCH  24  25
ATOM     25  CG  ARG A   2       1.539   4.116  25.994  0.00  0.00    +0.039 C 
BRANCH  25  26
ATOM     26  CD  ARG A   2       1.459   3.185  27.201  0.00  0.00    +0.196 C 
BRANCH  26  27
ATOM     27  NE  ARG A   2       1.803   1.809  26.816  0.00  0.00    -0.279 N 
ATOM     28  HE  ARG A   2       1.859   1.573  25.829  0.00  0.00    +0.258 HD
ATOM     29  CZ  ARG A   2       2.048   0.814  27.679  0.00  0.00    +0.341 C 
ATOM     30  NH2 ARG A   2       2.287  -0.415  27.217  0.00  0.00    -0.292 N 
ATOM     31 HH21 ARG A   2       2.146  -0.650  26.232  0.00  0.00    +0.255 HD
ATOM     32 HH22 ARG A   2       2.527  -1.180  27.831  0.00  0.00    +0.255 HD
ATOM     33  NH1 ARG A   2       2.054   1.018  29.001  0.00  0.00    -0.292 N 
ATOM     34 HH11 ARG A   2       1.867   1.932  29.392  0.00  0.00    +0.255 HD
ATOM     35 HH12 ARG A   2       2.230   0.267  29.654  0.00  0.00    +0.255 HD
ENDBRANCH  26  27
ENDBRANCH  25  26
ENDBRANCH  24  25
ENDBRANCH  11  24
ENDBRANCH   7  11
ENDBRANCH   6   9
BRANCH   6  36
ATOM     36  CB  LEU A   3       5.543   0.194  25.586  0.00  0.00    +0.034 C 
BRANCH  36  37
ATOM     37  CG  LEU A   3       5.997   0.328  27.053  0.00  0.00    -0.015 C 
ATOM     38  CD2 LEU A   3       7.526   0.350  27.120  0.00  0.00    +0.007 C 
ATOM     39  CD1 LEU A   3       5.439   1.588  27.718  0.00  0.00    +0.007 C 
ENDBRANCH  36  37
ENDBRANCH   6  36
ENDBRANCH   2   6
ENDBRANCH   1   3
BRANCH   1  40
ATOM     40  C   GLN A   4       6.463  -1.900  21.418  0.00  0.00    +0.234 C 
ATOM     41  O   GLN A   4       5.834  -1.850  20.361  0.00  0.00    -0.274 OA
ATOM     42  N   SER A   5       6.450  -3.003  22.227  0.00  0.00    -0.301 N 
ATOM     43  H   SER A   5       7.022  -3.066  23.066  0.00  0.00    +0.150 HD
BRANCH  42  44
ATOM     44  CA  SER A   5       5.616  -4.178  21.940  0.00  0.00    +0.184 C 
BRANCH  44  45
ATOM     45  C   SER A   5       4.927  -4.577  23.254  0.00  0.00    +0.236 C 
ATOM     46  N   LEU A   6       3.557  -4.502  23.244  0.00  0.00    -0.302 N 
ATOM     47  H   LEU A   6       3.058  -4.326  22.374  0.00  0.00    +0.150 HD
ATOM     48  O   SER A   5       5.581  -4.898  24.248  0.00  0.00    -0.274 OA
BRANCH  46  49
ATOM     49  CA  LEU A   6       2.710  -4.900  24.371  0.00  0.00    +0.159 C 
BRANCH  49  50
ATOM     50  C   LEU A   6       3.139  -4.012  25.559  0.00  0.00    +0.234 C 
ATOM     51  O   LEU A   6       3.126  -2.783  25.485  0.00  0.00    -0.274 OA
ATOM     52  N   GLU A   7       3.571  -4.686  26.672  0.00  0.00    -0.302 N 
ATOM     53  H   GLU A   7       3.567  -5.703  26.693  0.00  0.00    +0.150 HD
BRANCH  52  54
ATOM     54  CA  GLU A   7       4.129  -4.006  27.840  0.00  0.00    +0.159 C 
BRANCH  54  55
ATOM     55  C   GLU A   7       5.629  -4.358  27.863  0.00  0.00    +0.234 C 
ATOM     56  N   ASN A   8       6.394  -3.740  26.904  0.00  0.00    -0.304 N 
ATOM     57  H   ASN A   8       5.969  -3.105  26.230  0.00  0.00    +0.149 HD
ATOM     58  O   GLU A   7       6.113  -5.113  28.706  0.00  0.00    -0.274 OA
BRANCH  56  59
ATOM     59  CA  ASN A   8       7.828  -3.971  26.771  0.00  0.00    +0.145 C 
BRANCH  59  60
ATOM     60  C   ASN A   8       8.341  -3.014  25.706  0.00  0.00    +0.245 C 
ATOM     61  O   ASN A   8       7.605  -2.347  24.982  0.00  0.00    -0.299 OA
ENDBRANCH  59  60
BRANCH  59  62
ATOM     62  CB  ASN A   8       8.163  -5.395  26.350  0.00  0.00    +0.125 C 
BRANCH  62  63
ATOM     63  CG  ASN A   8       9.137  -5.457  25.201  0.00  0.00    +0.213 C 
ATOM     64  ND2 ASN A   8      10.460  -5.473  25.530  0.00  0.00    -0.329 N 
ATOM     65 HD21 ASN A   8      10.783  -5.830  26.418  0.00  0.00    +0.145 HD
ATOM     66 HD22 ASN A   8      11.092  -5.611  24.750  0.00  0.00    +0.145 HD
ATOM     67  OD1 ASN A   8       8.783  -5.460  24.027  0.00  0.00    -0.276 OA
ENDBRANCH  62  63
ENDBRANCH  59  62
ENDBRANCH  56  59
ENDBRANCH  54  55
BRANCH  54  68
ATOM     68  CB  GLU A   7       3.425  -4.461  29.127  0.00  0.00    +0.038 C 
BRANCH  68  69
ATOM     69  CG  GLU A   7       2.562  -5.708  28.948  0.00  0.00    +0.059 C 
BRANCH  69  70
ATOM     70  CD  GLU A   7       3.312  -6.985  29.245  0.00  0.00    +0.023 C 
ATOM     71  OE1 GLU A   7       3.209  -7.594  30.298  0.00  0.00    -0.851 OA
BRANCH  70  72
ATOM     72  OE2 GLU A   7       4.153  -7.378  28.265  0.00  0.00    -0.526 OA
ATOM     73  HE2 GLU A   7       5.077  -7.511  28.541  0.00  0.00    +0.290 HD
ENDBRANCH  70  72
ENDBRANCH  69  70
ENDBRANCH  68  69
ENDBRANCH  54  68
ENDBRANCH  52  54
ENDBRANCH  49  50
BRANCH  49  74
ATOM     74  CB  LEU A   6       2.907  -6.377  24.756  0.00  0.00    +0.034 C 
BRANCH  74  75
ATOM     75  CG  LEU A   6       1.678  -7.289  24.582  0.00  0.00    -0.015 C 
ATOM     76  CD2 LEU A   6       1.824  -8.607  25.344  0.00  0.00    +0.007 C 
ATOM     77  CD1 LEU A   6       1.455  -7.582  23.095  0.00  0.00    +0.007 C 
ENDBRANCH  74  75
ENDBRANCH  49  74
ENDBRANCH  46  49
ENDBRANCH  44  45
BRANCH  44  78
ATOM     78  CB  SER A   5       6.411  -5.354  21.357  0.00  0.00    +0.187 C 
BRANCH  78  79
ATOM     79  OG  SER A   5       6.363  -6.497  22.211  0.00  0.00    -0.393 OA
ATOM     80  H   SER A   5       7.262  -6.631  22.556  0.00  0.00    +0.209 HD
ENDBRANCH  78  79
ENDBRANCH  44  78
ENDBRANCH  42  44
ENDBRANCH   1  40
BRANCH   1  81
ATOM     81  CB  GLN A   4       8.689  -1.116  22.339  0.00  0.00    +0.041 C 
BRANCH  81  82
ATOM     82  CG  GLN A   4       9.787  -0.353  21.605  0.00  0.00    +0.098 C 
BRANCH  82  83
ATOM     83  CD  GLN A   4      10.081   0.932  22.356  0.00  0.00    +0.211 C 
ATOM     84  OE1 GLN A   4      10.380   0.973  23.550  0.00  0.00    -0.276 OA
ATOM     85  NE2 GLN A   4      10.082   2.053  21.581  0.00  0.00    -0.329 N 
ATOM     86 HE21 GLN A   4       9.818   2.048  20.602  0.00  0.00    +0.145 HD
ATOM     87 HE22 GLN A   4      10.262   2.952  22.005  0.00  0.00    +0.145 HD
ENDBRANCH  82  83
ENDBRANCH  81  82
ENDBRANCH   1  81
TORSDOF 37
ENDMDL
MODEL 9
REMARK VINA RESULT:      -4.8      2.282      8.091
REMARK  Name = TRLQSLEN-mmff94.pdb
REMARK  42 active torsions:
REMARK  status: ('A' for Active; 'I' for Inactive)
REMARK    1  A    between atoms: _1  and  _2
REMARK    2  A    between atoms: _2  and  _3
REMARK    3  A    between atoms: _2  and  _5
REMARK    4  A    between atoms: _5  and  _6
REMARK    5  A    between atoms: _5  and  _7
REMARK    6  A    between atoms: _15  and  _16
REMARK    7  A    between atoms: _16  and  _17
REMARK    8  A    between atoms: _16  and  _19
REMARK    9  A    between atoms: _19  and  _20
REMARK   10  A    between atoms: _20  and  _21
REMARK   11  A    between atoms: _21  and  _22
REMARK   12  A    between atoms: _39  and  _40
REMARK   13  A    between atoms: _40  and  _41
REMARK   14  A    between atoms: _40  and  _43
REMARK   15  A    between atoms: _43  and  _44
REMARK   16  A    between atoms: _44  and  _45
REMARK   17  A    between atoms: _44  and  _46
REMARK   18  A    between atoms: _58  and  _59
REMARK   19  A    between atoms: _59  and  _60
REMARK   20  A    between atoms: _59  and  _62
REMARK   21  A    between atoms: _62  and  _63
REMARK   22  A    between atoms: _63  and  _64
REMARK   23  A    between atoms: _75  and  _76
REMARK   24  A    between atoms: _76  and  _77
REMARK   25  A    between atoms: _76  and  _79
REMARK   26  A    between atoms: _79  and  _80
REMARK   27  A    between atoms: _86  and  _87
REMARK   28  A    between atoms: _87  and  _88
REMARK   29  A    between atoms: _87  and  _90
REMARK   30  A    between atoms: _90  and  _91
REMARK   31  A    between atoms: _91  and  _92
REMARK   32  A    between atoms: _91  and  _93
REMARK   33  A    between atoms: _105  and  _106
REMARK   34  A    between atoms: _106  and  _107
REMARK   35  A    between atoms: _106  and  _109
REMARK   36  A    between atoms: _109  and  _110
REMARK   37  A    between atoms: _110  and  _111
REMARK   38  A    between atoms: _111  and  _112
REMARK   39  A    between atoms: _120  and  _121
REMARK   40  A    between atoms: _121  and  _122
REMARK   41  A    between atoms: _121  and  _124
REMARK   42  A    between atoms: _124  and  _125
REMARK                            x       y       z     vdW  Elec       q    Type
REMARK                         _______ _______ _______ _____ _____    ______ ____
ROOT
ATOM      1  CA  GLN A   4       3.378  -3.811  26.687  0.00  0.00    +0.159 C 
ENDROOT
BRANCH   1   3
ATOM      2  C   LEU A   3       3.577  -4.385  24.274  0.00  0.00    +0.234 C 
ATOM      3  N   GLN A   4       4.089  -3.805  25.408  0.00  0.00    -0.302 N 
ATOM      4  H   GLN A   4       5.042  -3.446  25.421  0.00  0.00    +0.150 HD
ATOM      5  O   LEU A   3       2.473  -4.932  24.249  0.00  0.00    -0.274 OA
BRANCH   2   6
ATOM      6  CA  LEU A   3       4.495  -4.310  23.034  0.00  0.00    +0.159 C 
BRANCH   6   9
ATOM      7  C   ARG A   2       5.941  -2.421  22.303  0.00  0.00    +0.234 C 
ATOM      8  O   ARG A   2       5.680  -2.563  21.111  0.00  0.00    -0.274 OA
ATOM      9  N   LEU A   3       5.452  -3.239  23.289  0.00  0.00    -0.302 N 
ATOM     10  H   LEU A   3       5.624  -3.018  24.265  0.00  0.00    +0.150 HD
BRANCH   7  11
ATOM     11  CA  ARG A   2       6.823  -1.268  22.810  0.00  0.00    +0.159 C 
BRANCH  11  13
ATOM     12  C   THR A   1       8.594  -2.349  24.162  0.00  0.00    +0.233 C 
ATOM     13  N   ARG A   2       7.382  -1.696  24.086  0.00  0.00    -0.303 N 
ATOM     14  H   ARG A   2       6.857  -1.470  24.925  0.00  0.00    +0.149 HD
ATOM     15  O   THR A   1       9.239  -2.621  23.153  0.00  0.00    -0.274 OA
BRANCH  12  16
ATOM     16  CA  THR A   1       9.048  -2.662  25.599  0.00  0.00    +0.166 C 
BRANCH  16  17
ATOM     17  N   THR A   1       8.080  -2.103  26.571  0.00  0.00    -0.318 NA
ATOM     18  H1  THR A   1       8.075  -2.727  27.381  0.00  0.00    +0.119 HD
ATOM     19  H2  THR A   1       8.401  -1.195  26.894  0.00  0.00    +0.119 HD
ENDBRANCH  16  17
BRANCH  16  20
ATOM     20  CB  THR A   1       9.203  -4.183  25.810  0.00  0.00    +0.137 C 
ATOM     21  CG2 THR A   1       7.913  -4.958  25.558  0.00  0.00    +0.040 C 
BRANCH  20  22
ATOM     22  OG1 THR A   1      10.187  -4.667  24.879  0.00  0.00    -0.390 OA
ATOM     23  HG1 THR A   1       9.768  -4.676  24.001  0.00  0.00    +0.210 HD
ENDBRANCH  20  22
ENDBRANCH  16  20
ENDBRANCH  12  16
ENDBRANCH  11  13
BRANCH  11  24
ATOM     24  CB  ARG A   2       7.949  -0.958  21.815  0.00  0.00    +0.035 C 
BRANCH  24  25
ATOM     25  CG  ARG A   2       7.903   0.472  21.274  0.00  0.00    +0.039 C 
BRANCH  25  26
ATOM     26  CD  ARG A   2       7.392   0.510  19.836  0.00  0.00    +0.196 C 
BRANCH  26  27
ATOM     27  NE  ARG A   2       6.169   1.320  19.743  0.00  0.00    -0.279 N 
ATOM     28  HE  ARG A   2       6.041   2.094  20.389  0.00  0.00    +0.258 HD
ATOM     29  CZ  ARG A   2       5.182   1.114  18.860  0.00  0.00    +0.341 C 
ATOM     30  NH2 ARG A   2       4.086   1.873  18.909  0.00  0.00    -0.292 N 
ATOM     31 HH21 ARG A   2       3.913   2.510  19.689  0.00  0.00    +0.255 HD
ATOM     32 HH22 ARG A   2       3.344   1.784  18.230  0.00  0.00    +0.255 HD
ATOM     33  NH1 ARG A   2       5.264   0.158  17.927  0.00  0.00    -0.292 N 
ATOM     34 HH11 ARG A   2       6.074  -0.445  17.864  0.00  0.00    +0.255 HD
ATOM     35 HH12 ARG A   2       4.517  -0.005  17.266  0.00  0.00    +0.255 HD
ENDBRANCH  26  27
ENDBRANCH  25  26
ENDBRANCH  24  25
ENDBRANCH  11  24
ENDBRANCH   7  11
ENDBRANCH   6   9
BRANCH   6  36
ATOM     36  CB  LEU A   3       5.205  -5.652  22.808  0.00  0.00    +0.034 C 
BRANCH  36  37
ATOM     37  CG  LEU A   3       6.415  -5.586  21.856  0.00  0.00    -0.015 C 
ATOM     38  CD2 LEU A   3       7.550  -6.456  22.402  0.00  0.00    +0.007 C 
ATOM     39  CD1 LEU A   3       6.060  -6.041  20.439  0.00  0.00    +0.007 C 
ENDBRANCH  36  37
ENDBRANCH   6  36
ENDBRANCH   2   6
ENDBRANCH   1   3
BRANCH   1  40
ATOM     40  C   GLN A   4       2.815  -2.388  26.867  0.00  0.00    +0.234 C 
ATOM     41  O   GLN A   4       1.881  -1.971  26.182  0.00  0.00    -0.274 OA
ATOM     42  N   SER A   5       3.447  -1.608  27.796  0.00  0.00    -0.301 N 
ATOM     43  H   SER A   5       4.174  -1.976  28.408  0.00  0.00    +0.150 HD
BRANCH  42  44
ATOM     44  CA  SER A   5       3.119  -0.189  27.985  0.00  0.00    +0.184 C 
BRANCH  44  45
ATOM     45  C   SER A   5       3.917   0.604  26.939  0.00  0.00    +0.236 C 
ATOM     46  N   LEU A   6       3.239   1.636  26.342  0.00  0.00    -0.302 N 
ATOM     47  H   LEU A   6       2.323   1.918  26.688  0.00  0.00    +0.150 HD
ATOM     48  O   SER A   5       5.071   0.290  26.641  0.00  0.00    -0.274 OA
BRANCH  46  49
ATOM     49  CA  LEU A   6       3.839   2.552  25.370  0.00  0.00    +0.159 C 
BRANCH  49  50
ATOM     50  C   LEU A   6       4.460   3.700  26.194  0.00  0.00    +0.234 C 
ATOM     51  O   LEU A   6       3.823   4.717  26.468  0.00  0.00    -0.274 OA
ATOM     52  N   GLU A   7       5.770   3.522  26.558  0.00  0.00    -0.302 N 
ATOM     53  H   GLU A   7       6.262   2.667  26.310  0.00  0.00    +0.150 HD
BRANCH  52  54
ATOM     54  CA  GLU A   7       6.550   4.559  27.232  0.00  0.00    +0.159 C 
BRANCH  54  55
ATOM     55  C   GLU A   7       7.821   4.758  26.383  0.00  0.00    +0.234 C 
ATOM     56  N   ASN A   8       8.009   3.840  25.380  0.00  0.00    -0.304 N 
ATOM     57  H   ASN A   8       7.343   3.083  25.236  0.00  0.00    +0.149 HD
ATOM     58  O   GLU A   7       8.594   5.698  26.570  0.00  0.00    -0.274 OA
BRANCH  56  59
ATOM     59  CA  ASN A   8       9.167   3.869  24.492  0.00  0.00    +0.145 C 
BRANCH  59  60
ATOM     60  C   ASN A   8       8.859   4.863  23.383  0.00  0.00    +0.245 C 
ATOM     61  O   ASN A   8       7.812   4.856  22.738  0.00  0.00    -0.299 OA
ENDBRANCH  59  60
BRANCH  59  62
ATOM     62  CB  ASN A   8       9.468   2.515  23.865  0.00  0.00    +0.125 C 
BRANCH  62  63
ATOM     63  CG  ASN A   8       9.276   1.366  24.822  0.00  0.00    +0.213 C 
ATOM     64  ND2 ASN A   8      10.404   0.702  25.203  0.00  0.00    -0.329 N 
ATOM     65 HD21 ASN A   8      11.309   1.151  25.208  0.00  0.00    +0.145 HD
ATOM     66 HD22 ASN A   8      10.263  -0.003  25.918  0.00  0.00    +0.145 HD
ATOM     67  OD1 ASN A   8       8.173   1.010  25.223  0.00  0.00    -0.276 OA
ENDBRANCH  62  63
ENDBRANCH  59  62
ENDBRANCH  56  59
ENDBRANCH  54  55
BRANCH  54  68
ATOM     68  CB  GLU A   7       6.894   4.138  28.668  0.00  0.00    +0.038 C 
BRANCH  68  69
ATOM     69  CG  GLU A   7       6.134   2.902  29.145  0.00  0.00    +0.059 C 
BRANCH  69  70
ATOM     70  CD  GLU A   7       7.001   1.667  29.196  0.00  0.00    +0.023 C 
ATOM     71  OE1 GLU A   7       7.261   1.071  30.230  0.00  0.00    -0.851 OA
BRANCH  70  72
ATOM     72  OE2 GLU A   7       7.514   1.297  28.004  0.00  0.00    -0.526 OA
ATOM     73  HE2 GLU A   7       6.867   0.950  27.364  0.00  0.00    +0.290 HD
ENDBRANCH  70  72
ENDBRANCH  69  70
ENDBRANCH  68  69
ENDBRANCH  54  68
ENDBRANCH  52  54
ENDBRANCH  49  50
BRANCH  49  74
ATOM     74  CB  LEU A   6       2.796   3.142  24.403  0.00  0.00    +0.034 C 
BRANCH  74  75
ATOM     75  CG  LEU A   6       3.323   3.568  23.020  0.00  0.00    -0.015 C 
ATOM     76  CD2 LEU A   6       4.724   3.020  22.742  0.00  0.00    +0.007 C 
ATOM     77  CD1 LEU A   6       3.345   5.096  22.920  0.00  0.00    +0.007 C 
ENDBRANCH  74  75
ENDBRANCH  49  74
ENDBRANCH  46  49
ENDBRANCH  44  45
BRANCH  44  78
ATOM     78  CB  SER A   5       3.417   0.315  29.403  0.00  0.00    +0.187 C 
BRANCH  78  79
ATOM     79  OG  SER A   5       4.488  -0.411  30.006  0.00  0.00    -0.393 OA
ATOM     80  H   SER A   5       4.222  -1.346  30.023  0.00  0.00    +0.209 HD
ENDBRANCH  78  79
ENDBRANCH  44  78
ENDBRANCH  42  44
ENDBRANCH   1  40
BRANCH   1  81
ATOM     81  CB  GLN A   4       4.342  -4.168  27.827  0.00  0.00    +0.041 C 
BRANCH  81  82
ATOM     82  CG  GLN A   4       5.457  -5.122  27.412  0.00  0.00    +0.098 C 
BRANCH  82  83
ATOM     83  CD  GLN A   4       5.742  -6.076  28.556  0.00  0.00    +0.211 C 
ATOM     84  OE1 GLN A   4       6.333  -5.749  29.587  0.00  0.00    -0.276 OA
ATOM     85  NE2 GLN A   4       5.208  -7.320  28.402  0.00  0.00    -0.329 N 
ATOM     86 HE21 GLN A   4       4.737  -7.619  27.555  0.00  0.00    +0.145 HD
ATOM     87 HE22 GLN A   4       5.358  -8.018  29.117  0.00  0.00    +0.145 HD
ENDBRANCH  82  83
ENDBRANCH  81  82
ENDBRANCH   1  81
TORSDOF 37
ENDMDL
MODEL 10
REMARK VINA RESULT:      -4.8      2.376      7.247
REMARK  Name = TRLQSLEN-mmff94.pdb
REMARK  42 active torsions:
REMARK  status: ('A' for Active; 'I' for Inactive)
REMARK    1  A    between atoms: _1  and  _2
REMARK    2  A    between atoms: _2  and  _3
REMARK    3  A    between atoms: _2  and  _5
REMARK    4  A    between atoms: _5  and  _6
REMARK    5  A    between atoms: _5  and  _7
REMARK    6  A    between atoms: _15  and  _16
REMARK    7  A    between atoms: _16  and  _17
REMARK    8  A    between atoms: _16  and  _19
REMARK    9  A    between atoms: _19  and  _20
REMARK   10  A    between atoms: _20  and  _21
REMARK   11  A    between atoms: _21  and  _22
REMARK   12  A    between atoms: _39  and  _40
REMARK   13  A    between atoms: _40  and  _41
REMARK   14  A    between atoms: _40  and  _43
REMARK   15  A    between atoms: _43  and  _44
REMARK   16  A    between atoms: _44  and  _45
REMARK   17  A    between atoms: _44  and  _46
REMARK   18  A    between atoms: _58  and  _59
REMARK   19  A    between atoms: _59  and  _60
REMARK   20  A    between atoms: _59  and  _62
REMARK   21  A    between atoms: _62  and  _63
REMARK   22  A    between atoms: _63  and  _64
REMARK   23  A    between atoms: _75  and  _76
REMARK   24  A    between atoms: _76  and  _77
REMARK   25  A    between atoms: _76  and  _79
REMARK   26  A    between atoms: _79  and  _80
REMARK   27  A    between atoms: _86  and  _87
REMARK   28  A    between atoms: _87  and  _88
REMARK   29  A    between atoms: _87  and  _90
REMARK   30  A    between atoms: _90  and  _91
REMARK   31  A    between atoms: _91  and  _92
REMARK   32  A    between atoms: _91  and  _93
REMARK   33  A    between atoms: _105  and  _106
REMARK   34  A    between atoms: _106  and  _107
REMARK   35  A    between atoms: _106  and  _109
REMARK   36  A    between atoms: _109  and  _110
REMARK   37  A    between atoms: _110  and  _111
REMARK   38  A    between atoms: _111  and  _112
REMARK   39  A    between atoms: _120  and  _121
REMARK   40  A    between atoms: _121  and  _122
REMARK   41  A    between atoms: _121  and  _124
REMARK   42  A    between atoms: _124  and  _125
REMARK                            x       y       z     vdW  Elec       q    Type
REMARK                         _______ _______ _______ _____ _____    ______ ____
ROOT
ATOM      1  CA  GLN A   4       7.600   0.506  21.572  0.00  0.00    +0.159 C 
ENDROOT
BRANCH   1   3
ATOM      2  C   LEU A   3       9.455   2.077  22.105  0.00  0.00    +0.234 C 
ATOM      3  N   GLN A   4       8.125   1.841  21.856  0.00  0.00    -0.302 N 
ATOM      4  H   GLN A   4       7.437   2.584  21.973  0.00  0.00    +0.150 HD
ATOM      5  O   LEU A   3      10.302   1.182  22.084  0.00  0.00    -0.274 OA
BRANCH   2   6
ATOM      6  CA  LEU A   3       9.807   3.546  22.423  0.00  0.00    +0.159 C 
BRANCH   6   9
ATOM      7  C   ARG A   2       8.283   3.703  24.385  0.00  0.00    +0.234 C 
ATOM      8  O   ARG A   2       8.827   2.786  24.996  0.00  0.00    -0.274 OA
ATOM      9  N   LEU A   3       8.659   4.105  23.129  0.00  0.00    -0.302 N 
ATOM     10  H   LEU A   3       8.237   4.929  22.711  0.00  0.00    +0.150 HD
BRANCH   7  11
ATOM     11  CA  ARG A   2       7.136   4.522  25.001  0.00  0.00    +0.159 C 
BRANCH  11  13
ATOM     12  C   THR A   1       5.397   4.684  23.246  0.00  0.00    +0.233 C 
ATOM     13  N   ARG A   2       5.906   4.065  24.367  0.00  0.00    -0.303 N 
ATOM     14  H   ARG A   2       5.450   3.250  24.768  0.00  0.00    +0.149 HD
ATOM     15  O   THR A   1       5.945   5.665  22.751  0.00  0.00    -0.274 OA
BRANCH  12  16
ATOM     16  CA  THR A   1       4.128   4.017  22.684  0.00  0.00    +0.166 C 
BRANCH  16  17
ATOM     17  N   THR A   1       4.498   2.943  21.732  0.00  0.00    -0.318 NA
ATOM     18  H1  THR A   1       3.714   2.835  21.084  0.00  0.00    +0.119 HD
ATOM     19  H2  THR A   1       5.303   3.231  21.184  0.00  0.00    +0.119 HD
ENDBRANCH  16  17
BRANCH  16  20
ATOM     20  CB  THR A   1       3.254   3.448  23.821  0.00  0.00    +0.137 C 
ATOM     21  CG2 THR A   1       1.802   3.227  23.409  0.00  0.00    +0.040 C 
BRANCH  20  22
ATOM     22  OG1 THR A   1       3.793   2.171  24.206  0.00  0.00    -0.390 OA
ATOM     23  HG1 THR A   1       4.344   1.860  23.466  0.00  0.00    +0.210 HD
ENDBRANCH  20  22
ENDBRANCH  16  20
ENDBRANCH  12  16
ENDBRANCH  11  13
BRANCH  11  24
ATOM     24  CB  ARG A   2       7.062   4.310  26.519  0.00  0.00    +0.035 C 
BRANCH  24  25
ATOM     25  CG  ARG A   2       5.779   3.610  26.971  0.00  0.00    +0.039 C 
BRANCH  25  26
ATOM     26  CD  ARG A   2       5.815   3.284  28.461  0.00  0.00    +0.196 C 
BRANCH  26  27
ATOM     27  NE  ARG A   2       7.110   2.693  28.831  0.00  0.00    -0.279 N 
ATOM     28  HE  ARG A   2       7.957   3.060  28.408  0.00  0.00    +0.258 HD
ATOM     29  CZ  ARG A   2       7.268   1.681  29.695  0.00  0.00    +0.341 C 
ATOM     30  NH2 ARG A   2       8.486   1.180  29.906  0.00  0.00    -0.292 N 
ATOM     31 HH21 ARG A   2       9.281   1.447  29.321  0.00  0.00    +0.255 HD
ATOM     32 HH22 ARG A   2       8.654   0.453  30.587  0.00  0.00    +0.255 HD
ATOM     33  NH1 ARG A   2       6.229   1.152  30.352  0.00  0.00    -0.292 N 
ATOM     34 HH11 ARG A   2       5.289   1.497  30.212  0.00  0.00    +0.255 HD
ATOM     35 HH12 ARG A   2       6.345   0.383  30.998  0.00  0.00    +0.255 HD
ENDBRANCH  26  27
ENDBRANCH  25  26
ENDBRANCH  24  25
ENDBRANCH  11  24
ENDBRANCH   7  11
ENDBRANCH   6   9
BRANCH   6  36
ATOM     36  CB  LEU A   3      11.079   3.622  23.278  0.00  0.00    +0.034 C 
BRANCH  36  37
ATOM     37  CG  LEU A   3      11.796   4.986  23.242  0.00  0.00    -0.015 C 
ATOM     38  CD2 LEU A   3      11.367   5.827  24.447  0.00  0.00    +0.007 C 
ATOM     39  CD1 LEU A   3      13.320   4.837  23.240  0.00  0.00    +0.007 C 
ENDBRANCH  36  37
ENDBRANCH   6  36
ENDBRANCH   2   6
ENDBRANCH   1   3
BRANCH   1  40
ATOM     40  C   GLN A   4       7.998  -0.372  22.775  0.00  0.00    +0.234 C 
ATOM     41  O   GLN A   4       8.801  -1.297  22.662  0.00  0.00    -0.274 OA
ATOM     42  N   SER A   5       7.367  -0.090  23.955  0.00  0.00    -0.301 N 
ATOM     43  H   SER A   5       6.753   0.715  24.063  0.00  0.00    +0.150 HD
BRANCH  42  44
ATOM     44  CA  SER A   5       7.533  -0.923  25.154  0.00  0.00    +0.184 C 
BRANCH  44  45
ATOM     45  C   SER A   5       6.129  -1.185  25.722  0.00  0.00    +0.236 C 
ATOM     46  N   LEU A   6       6.060  -1.291  27.088  0.00  0.00    -0.302 N 
ATOM     47  H   LEU A   6       6.872  -1.071  27.663  0.00  0.00    +0.150 HD
ATOM     48  O   SER A   5       5.155  -1.326  24.981  0.00  0.00    -0.274 OA
BRANCH  46  49
ATOM     49  CA  LEU A   6       4.810  -1.474  27.830  0.00  0.00    +0.159 C 
BRANCH  49  50
ATOM     50  C   LEU A   6       4.563  -2.997  27.878  0.00  0.00    +0.234 C 
ATOM     51  O   LEU A   6       4.692  -3.640  28.920  0.00  0.00    -0.274 OA
ATOM     52  N   GLU A   7       4.235  -3.578  26.680  0.00  0.00    -0.302 N 
ATOM     53  H   GLU A   7       4.140  -3.011  25.840  0.00  0.00    +0.150 HD
BRANCH  52  54
ATOM     54  CA  GLU A   7       4.089  -5.023  26.518  0.00  0.00    +0.159 C 
BRANCH  54  55
ATOM     55  C   GLU A   7       5.513  -5.577  26.316  0.00  0.00    +0.234 C 
ATOM     56  N   ASN A   8       6.348  -4.794  25.559  0.00  0.00    -0.304 N 
ATOM     57  H   ASN A   8       6.019  -3.916  25.162  0.00  0.00    +0.149 HD
ATOM     58  O   GLU A   7       5.886  -6.633  26.830  0.00  0.00    -0.274 OA
BRANCH  56  59
ATOM     59  CA  ASN A   8       7.724  -5.174  25.255  0.00  0.00    +0.145 C 
BRANCH  59  60
ATOM     60  C   ASN A   8       8.621  -4.452  26.248  0.00  0.00    +0.245 C 
ATOM     61  O   ASN A   8       8.194  -3.727  27.145  0.00  0.00    -0.299 OA
ENDBRANCH  59  60
BRANCH  59  62
ATOM     62  CB  ASN A   8       8.148  -4.787  23.844  0.00  0.00    +0.125 C 
BRANCH  62  63
ATOM     63  CG  ASN A   8       7.008  -4.818  22.857  0.00  0.00    +0.213 C 
ATOM     64  ND2 ASN A   8       6.875  -3.724  22.054  0.00  0.00    -0.329 N 
ATOM     65 HD21 ASN A   8       7.664  -3.137  21.819  0.00  0.00    +0.145 HD
ATOM     66 HD22 ASN A   8       6.165  -3.807  21.335  0.00  0.00    +0.145 HD
ATOM     67  OD1 ASN A   8       6.214  -5.750  22.786  0.00  0.00    -0.276 OA
ENDBRANCH  62  63
ENDBRANCH  59  62
ENDBRANCH  56  59
ENDBRANCH  54  55
BRANCH  54  68
ATOM     68  CB  GLU A   7       3.184  -5.353  25.322  0.00  0.00    +0.038 C 
BRANCH  68  69
ATOM     69  CG  GLU A   7       2.375  -6.636  25.499  0.00  0.00    +0.059 C 
BRANCH  69  70
ATOM     70  CD  GLU A   7       2.927  -7.789  24.694  0.00  0.00    +0.023 C 
ATOM     71  OE1 GLU A   7       2.479  -8.924  24.752  0.00  0.00    -0.851 OA
BRANCH  70  72
ATOM     72  OE2 GLU A   7       3.998  -7.476  23.935  0.00  0.00    -0.526 OA
ATOM     73  HE2 GLU A   7       3.798  -7.244  23.011  0.00  0.00    +0.290 HD
ENDBRANCH  70  72
ENDBRANCH  69  70
ENDBRANCH  68  69
ENDBRANCH  54  68
ENDBRANCH  52  54
ENDBRANCH  49  50
BRANCH  49  74
ATOM     74  CB  LEU A   6       3.615  -0.797  27.135  0.00  0.00    +0.034 C 
BRANCH  74  75
ATOM     75  CG  LEU A   6       2.433  -0.415  28.046  0.00  0.00    -0.015 C 
ATOM     76  CD2 LEU A   6       1.755   0.881  27.600  0.00  0.00    +0.007 C 
ATOM     77  CD1 LEU A   6       2.918  -0.264  29.491  0.00  0.00    +0.007 C 
ENDBRANCH  74  75
ENDBRANCH  49  74
ENDBRANCH  46  49
ENDBRANCH  44  45
BRANCH  44  78
ATOM     78  CB  SER A   5       8.445  -0.286  26.210  0.00  0.00    +0.187 C 
BRANCH  78  79
ATOM     79  OG  SER A   5       7.886   0.920  26.729  0.00  0.00    -0.393 OA
ATOM     80  H   SER A   5       8.503   1.251  27.404  0.00  0.00    +0.209 HD
ENDBRANCH  78  79
ENDBRANCH  44  78
ENDBRANCH  42  44
ENDBRANCH   1  40
BRANCH   1  81
ATOM     81  CB  GLN A   4       8.209  -0.038  20.272  0.00  0.00    +0.041 C 
BRANCH  81  82
ATOM     82  CG  GLN A   4       7.367   0.250  19.034  0.00  0.00    +0.098 C 
BRANCH  82  83
ATOM     83  CD  GLN A   4       5.953  -0.243  19.273  0.00  0.00    +0.211 C 
ATOM     84  OE1 GLN A   4       5.668  -1.421  19.495  0.00  0.00    -0.276 OA
ATOM     85  NE2 GLN A   4       5.010   0.741  19.318  0.00  0.00    -0.329 N 
ATOM     86 HE21 GLN A   4       5.217   1.713  19.118  0.00  0.00    +0.145 HD
ATOM     87 HE22 GLN A   4       4.042   0.496  19.467  0.00  0.00    +0.145 HD
ENDBRANCH  82  83
ENDBRANCH  81  82
ENDBRANCH   1  81
TORSDOF 37
ENDMDL
MODEL 11
REMARK VINA RESULT:      -4.8      2.344      6.744
REMARK  Name = TRLQSLEN-mmff94.pdb
REMARK  42 active torsions:
REMARK  status: ('A' for Active; 'I' for Inactive)
REMARK    1  A    between atoms: _1  and  _2
REMARK    2  A    between atoms: _2  and  _3
REMARK    3  A    between atoms: _2  and  _5
REMARK    4  A    between atoms: _5  and  _6
REMARK    5  A    between atoms: _5  and  _7
REMARK    6  A    between atoms: _15  and  _16
REMARK    7  A    between atoms: _16  and  _17
REMARK    8  A    between atoms: _16  and  _19
REMARK    9  A    between atoms: _19  and  _20
REMARK   10  A    between atoms: _20  and  _21
REMARK   11  A    between atoms: _21  and  _22
REMARK   12  A    between atoms: _39  and  _40
REMARK   13  A    between atoms: _40  and  _41
REMARK   14  A    between atoms: _40  and  _43
REMARK   15  A    between atoms: _43  and  _44
REMARK   16  A    between atoms: _44  and  _45
REMARK   17  A    between atoms: _44  and  _46
REMARK   18  A    between atoms: _58  and  _59
REMARK   19  A    between atoms: _59  and  _60
REMARK   20  A    between atoms: _59  and  _62
REMARK   21  A    between atoms: _62  and  _63
REMARK   22  A    between atoms: _63  and  _64
REMARK   23  A    between atoms: _75  and  _76
REMARK   24  A    between atoms: _76  and  _77
REMARK   25  A    between atoms: _76  and  _79
REMARK   26  A    between atoms: _79  and  _80
REMARK   27  A    between atoms: _86  and  _87
REMARK   28  A    between atoms: _87  and  _88
REMARK   29  A    between atoms: _87  and  _90
REMARK   30  A    between atoms: _90  and  _91
REMARK   31  A    between atoms: _91  and  _92
REMARK   32  A    between atoms: _91  and  _93
REMARK   33  A    between atoms: _105  and  _106
REMARK   34  A    between atoms: _106  and  _107
REMARK   35  A    between atoms: _106  and  _109
REMARK   36  A    between atoms: _109  and  _110
REMARK   37  A    between atoms: _110  and  _111
REMARK   38  A    between atoms: _111  and  _112
REMARK   39  A    between atoms: _120  and  _121
REMARK   40  A    between atoms: _121  and  _122
REMARK   41  A    between atoms: _121  and  _124
REMARK   42  A    between atoms: _124  and  _125
REMARK                            x       y       z     vdW  Elec       q    Type
REMARK                         _______ _______ _______ _____ _____    ______ ____
ROOT
ATOM      1  CA  GLN A   4       6.277  -5.212  23.919  0.00  0.00    +0.159 C 
ENDROOT
BRANCH   1   3
ATOM      2  C   LEU A   3       7.814  -3.513  22.950  0.00  0.00    +0.234 C 
ATOM      3  N   GLN A   4       7.038  -3.965  23.988  0.00  0.00    -0.302 N 
ATOM      4  H   GLN A   4       7.057  -3.495  24.892  0.00  0.00    +0.150 HD
ATOM      5  O   LEU A   3       7.906  -4.116  21.879  0.00  0.00    -0.274 OA
BRANCH   2   6
ATOM      6  CA  LEU A   3       8.573  -2.197  23.230  0.00  0.00    +0.159 C 
BRANCH   6   9
ATOM      7  C   ARG A   2       8.318  -0.334  21.600  0.00  0.00    +0.234 C 
ATOM      8  O   ARG A   2       9.484  -0.390  21.214  0.00  0.00    -0.274 OA
ATOM      9  N   LEU A   3       7.808  -1.132  22.592  0.00  0.00    -0.302 N 
ATOM     10  H   LEU A   3       6.815  -1.107  22.804  0.00  0.00    +0.150 HD
BRANCH   7  11
ATOM     11  CA  ARG A   2       7.298   0.627  20.967  0.00  0.00    +0.159 C 
BRANCH  11  13
ATOM     12  C   THR A   1       6.901   2.839  22.006  0.00  0.00    +0.233 C 
ATOM     13  N   ARG A   2       7.723   1.978  21.312  0.00  0.00    -0.303 N 
ATOM     14  H   ARG A   2       8.664   2.253  21.046  0.00  0.00    +0.149 HD
ATOM     15  O   THR A   1       5.765   2.513  22.338  0.00  0.00    -0.274 OA
BRANCH  12  16
ATOM     16  CA  THR A   1       7.550   4.196  22.336  0.00  0.00    +0.166 C 
BRANCH  16  17
ATOM     17  N   THR A   1       6.679   5.301  21.872  0.00  0.00    -0.318 NA
ATOM     18  H1  THR A   1       5.726   5.075  22.167  0.00  0.00    +0.119 HD
ATOM     19  H2  THR A   1       6.941   6.165  22.338  0.00  0.00    +0.119 HD
ENDBRANCH  16  17
BRANCH  16  20
ATOM     20  CB  THR A   1       7.821   4.325  23.850  0.00  0.00    +0.137 C 
ATOM     21  CG2 THR A   1       8.917   3.387  24.345  0.00  0.00    +0.040 C 
BRANCH  20  22
ATOM     22  OG1 THR A   1       8.253   5.672  24.115  0.00  0.00    -0.390 OA
ATOM     23  HG1 THR A   1       7.828   5.949  24.945  0.00  0.00    +0.210 HD
ENDBRANCH  20  22
ENDBRANCH  16  20
ENDBRANCH  12  16
ENDBRANCH  11  13
BRANCH  11  24
ATOM     24  CB  ARG A   2       7.256   0.458  19.442  0.00  0.00    +0.035 C 
BRANCH  24  25
ATOM     25  CG  ARG A   2       5.843   0.256  18.894  0.00  0.00    +0.039 C 
BRANCH  25  26
ATOM     26  CD  ARG A   2       5.108   1.585  18.736  0.00  0.00    +0.196 C 
BRANCH  26  27
ATOM     27  NE  ARG A   2       4.123   1.762  19.812  0.00  0.00    -0.279 N 
ATOM     28  HE  ARG A   2       4.267   1.282  20.696  0.00  0.00    +0.258 HD
ATOM     29  CZ  ARG A   2       3.021   2.519  19.721  0.00  0.00    +0.341 C 
ATOM     30  NH2 ARG A   2       2.161   2.555  20.740  0.00  0.00    -0.292 N 
ATOM     31 HH21 ARG A   2       2.243   1.912  21.530  0.00  0.00    +0.255 HD
ATOM     32 HH22 ARG A   2       1.346   3.152  20.730  0.00  0.00    +0.255 HD
ATOM     33  NH1 ARG A   2       2.754   3.239  18.625  0.00  0.00    -0.292 N 
ATOM     34 HH11 ARG A   2       3.376   3.230  17.827  0.00  0.00    +0.255 HD
ATOM     35 HH12 ARG A   2       1.919   3.804  18.551  0.00  0.00    +0.255 HD
ENDBRANCH  26  27
ENDBRANCH  25  26
ENDBRANCH  24  25
ENDBRANCH  11  24
ENDBRANCH   7  11
ENDBRANCH   6   9
BRANCH   6  36
ATOM     36  CB  LEU A   3       8.706  -1.963  24.741  0.00  0.00    +0.034 C 
BRANCH  36  37
ATOM     37  CG  LEU A   3       9.064  -0.518  25.137  0.00  0.00    -0.015 C 
ATOM     38  CD2 LEU A   3       8.999  -0.368  26.659  0.00  0.00    +0.007 C 
ATOM     39  CD1 LEU A   3      10.454  -0.111  24.644  0.00  0.00    +0.007 C 
ENDBRANCH  36  37
ENDBRANCH   6  36
ENDBRANCH   2   6
ENDBRANCH   1   3
BRANCH   1  40
ATOM     40  C   GLN A   4       4.795  -4.801  23.822  0.00  0.00    +0.234 C 
ATOM     41  O   GLN A   4       4.319  -4.338  22.786  0.00  0.00    -0.274 OA
ATOM     42  N   SER A   5       4.060  -4.936  24.968  0.00  0.00    -0.301 N 
ATOM     43  H   SER A   5       4.437  -5.380  25.804  0.00  0.00    +0.150 HD
BRANCH  42  44
ATOM     44  CA  SER A   5       2.676  -4.459  25.076  0.00  0.00    +0.184 C 
BRANCH  44  45
ATOM     45  C   SER A   5       2.363  -4.307  26.573  0.00  0.00    +0.236 C 
ATOM     46  N   LEU A   6       3.098  -3.355  27.232  0.00  0.00    -0.302 N 
ATOM     47  H   LEU A   6       3.699  -2.718  26.712  0.00  0.00    +0.150 HD
ATOM     48  O   SER A   5       1.535  -5.030  27.130  0.00  0.00    -0.274 OA
BRANCH  46  49
ATOM     49  CA  LEU A   6       2.908  -3.010  28.643  0.00  0.00    +0.159 C 
BRANCH  49  50
ATOM     50  C   LEU A   6       3.402  -1.555  28.794  0.00  0.00    +0.234 C 
ATOM     51  O   LEU A   6       3.835  -1.127  29.864  0.00  0.00    -0.274 OA
ATOM     52  N   GLU A   7       3.286  -0.774  27.673  0.00  0.00    -0.302 N 
ATOM     53  H   GLU A   7       2.922  -1.166  26.807  0.00  0.00    +0.150 HD
BRANCH  52  54
ATOM     54  CA  GLU A   7       3.589   0.656  27.672  0.00  0.00    +0.159 C 
BRANCH  54  55
ATOM     55  C   GLU A   7       2.485   1.327  26.832  0.00  0.00    +0.234 C 
ATOM     56  N   ASN A   8       2.715   2.637  26.495  0.00  0.00    -0.304 N 
ATOM     57  H   ASN A   8       3.563   3.112  26.802  0.00  0.00    +0.149 HD
ATOM     58  O   GLU A   7       1.482   0.717  26.459  0.00  0.00    -0.274 OA
BRANCH  56  59
ATOM     59  CA  ASN A   8       1.768   3.429  25.718  0.00  0.00    +0.145 C 
BRANCH  59  60
ATOM     60  C   ASN A   8       2.395   3.670  24.354  0.00  0.00    +0.245 C 
ATOM     61  O   ASN A   8       2.709   2.766  23.582  0.00  0.00    -0.299 OA
ENDBRANCH  59  60
BRANCH  59  62
ATOM     62  CB  ASN A   8       1.456   4.776  26.356  0.00  0.00    +0.125 C 
BRANCH  62  63
ATOM     63  CG  ASN A   8       2.084   4.943  27.717  0.00  0.00    +0.213 C 
ATOM     64  ND2 ASN A   8       3.099   5.847  27.807  0.00  0.00    -0.329 N 
ATOM     65 HD21 ASN A   8       3.170   6.633  27.176  0.00  0.00    +0.145 HD
ATOM     66 HD22 ASN A   8       3.441   6.013  28.748  0.00  0.00    +0.145 HD
ATOM     67  OD1 ASN A   8       1.737   4.288  28.695  0.00  0.00    -0.276 OA
ENDBRANCH  62  63
ENDBRANCH  59  62
ENDBRANCH  56  59
ENDBRANCH  54  55
BRANCH  54  68
ATOM     68  CB  GLU A   7       4.982   0.921  27.083  0.00  0.00    +0.038 C 
BRANCH  68  69
ATOM     69  CG  GLU A   7       5.705  -0.344  26.624  0.00  0.00    +0.059 C 
BRANCH  69  70
ATOM     70  CD  GLU A   7       5.318  -0.762  25.225  0.00  0.00    +0.023 C 
ATOM     71  OE1 GLU A   7       4.818  -1.845  24.963  0.00  0.00    -0.851 OA
BRANCH  70  72
ATOM     72  OE2 GLU A   7       5.617   0.143  24.270  0.00  0.00    -0.526 OA
ATOM     73  HE2 GLU A   7       5.244  -0.045  23.391  0.00  0.00    +0.290 HD
ENDBRANCH  70  72
ENDBRANCH  69  70
ENDBRANCH  68  69
ENDBRANCH  54  68
ENDBRANCH  52  54
ENDBRANCH  49  50
BRANCH  49  74
ATOM     74  CB  LEU A   6       3.728  -3.914  29.580  0.00  0.00    +0.034 C 
BRANCH  74  75
ATOM     75  CG  LEU A   6       2.915  -4.780  30.562  0.00  0.00    -0.015 C 
ATOM     76  CD2 LEU A   6       2.971  -6.266  30.205  0.00  0.00    +0.007 C 
ATOM     77  CD1 LEU A   6       1.456  -4.315  30.580  0.00  0.00    +0.007 C 
ENDBRANCH  74  75
ENDBRANCH  49  74
ENDBRANCH  46  49
ENDBRANCH  44  45
BRANCH  44  78
ATOM     78  CB  SER A   5       1.662  -5.387  24.393  0.00  0.00    +0.187 C 
BRANCH  78  79
ATOM     79  OG  SER A   5       1.468  -5.036  23.023  0.00  0.00    -0.393 OA
ATOM     80  H   SER A   5       0.874  -5.705  22.641  0.00  0.00    +0.209 HD
ENDBRANCH  78  79
ENDBRANCH  44  78
ENDBRANCH  42  44
ENDBRANCH   1  40
BRANCH   1  81
ATOM     81  CB  GLN A   4       6.530  -6.058  25.175  0.00  0.00    +0.041 C 
BRANCH  81  82
ATOM     82  CG  GLN A   4       7.498  -5.414  26.163  0.00  0.00    +0.098 C 
BRANCH  82  83
ATOM     83  CD  GLN A   4       6.709  -4.839  27.323  0.00  0.00    +0.211 C 
ATOM     84  OE1 GLN A   4       6.312  -3.673  27.369  0.00  0.00    -0.276 OA
ATOM     85  NE2 GLN A   4       6.382  -5.743  28.289  0.00  0.00    -0.329 N 
ATOM     86 HE21 GLN A   4       6.715  -6.701  28.284  0.00  0.00    +0.145 HD
ATOM     87 HE22 GLN A   4       5.863  -5.440  29.101  0.00  0.00    +0.145 HD
ENDBRANCH  82  83
ENDBRANCH  81  82
ENDBRANCH   1  81
TORSDOF 37
ENDMDL
MODEL 12
REMARK VINA RESULT:      -4.8      2.440      7.344
REMARK  Name = TRLQSLEN-mmff94.pdb
REMARK  42 active torsions:
REMARK  status: ('A' for Active; 'I' for Inactive)
REMARK    1  A    between atoms: _1  and  _2
REMARK    2  A    between atoms: _2  and  _3
REMARK    3  A    between atoms: _2  and  _5
REMARK    4  A    between atoms: _5  and  _6
REMARK    5  A    between atoms: _5  and  _7
REMARK    6  A    between atoms: _15  and  _16
REMARK    7  A    between atoms: _16  and  _17
REMARK    8  A    between atoms: _16  and  _19
REMARK    9  A    between atoms: _19  and  _20
REMARK   10  A    between atoms: _20  and  _21
REMARK   11  A    between atoms: _21  and  _22
REMARK   12  A    between atoms: _39  and  _40
REMARK   13  A    between atoms: _40  and  _41
REMARK   14  A    between atoms: _40  and  _43
REMARK   15  A    between atoms: _43  and  _44
REMARK   16  A    between atoms: _44  and  _45
REMARK   17  A    between atoms: _44  and  _46
REMARK   18  A    between atoms: _58  and  _59
REMARK   19  A    between atoms: _59  and  _60
REMARK   20  A    between atoms: _59  and  _62
REMARK   21  A    between atoms: _62  and  _63
REMARK   22  A    between atoms: _63  and  _64
REMARK   23  A    between atoms: _75  and  _76
REMARK   24  A    between atoms: _76  and  _77
REMARK   25  A    between atoms: _76  and  _79
REMARK   26  A    between atoms: _79  and  _80
REMARK   27  A    between atoms: _86  and  _87
REMARK   28  A    between atoms: _87  and  _88
REMARK   29  A    between atoms: _87  and  _90
REMARK   30  A    between atoms: _90  and  _91
REMARK   31  A    between atoms: _91  and  _92
REMARK   32  A    between atoms: _91  and  _93
REMARK   33  A    between atoms: _105  and  _106
REMARK   34  A    between atoms: _106  and  _107
REMARK   35  A    between atoms: _106  and  _109
REMARK   36  A    between atoms: _109  and  _110
REMARK   37  A    between atoms: _110  and  _111
REMARK   38  A    between atoms: _111  and  _112
REMARK   39  A    between atoms: _120  and  _121
REMARK   40  A    between atoms: _121  and  _122
REMARK   41  A    between atoms: _121  and  _124
REMARK   42  A    between atoms: _124  and  _125
REMARK                            x       y       z     vdW  Elec       q    Type
REMARK                         _______ _______ _______ _____ _____    ______ ____
ROOT
ATOM      1  CA  GLN A   4       8.354  -4.251  24.705  0.00  0.00    +0.159 C 
ENDROOT
BRANCH   1   3
ATOM      2  C   LEU A   3       7.255  -5.319  26.666  0.00  0.00    +0.234 C 
ATOM      3  N   GLN A   4       7.269  -4.364  25.679  0.00  0.00    -0.302 N 
ATOM      4  H   GLN A   4       6.456  -3.769  25.525  0.00  0.00    +0.150 HD
ATOM      5  O   LEU A   3       8.169  -6.134  26.812  0.00  0.00    -0.274 OA
BRANCH   2   6
ATOM      6  CA  LEU A   3       6.004  -5.304  27.570  0.00  0.00    +0.159 C 
BRANCH   6   9
ATOM      7  C   ARG A   2       4.423  -3.688  26.528  0.00  0.00    +0.234 C 
ATOM      8  O   ARG A   2       4.878  -2.716  27.130  0.00  0.00    -0.274 OA
ATOM      9  N   LEU A   3       4.874  -4.971  26.711  0.00  0.00    -0.302 N 
ATOM     10  H   LEU A   3       4.527  -5.719  26.119  0.00  0.00    +0.150 HD
BRANCH   7  11
ATOM     11  CA  ARG A   2       3.316  -3.544  25.471  0.00  0.00    +0.159 C 
BRANCH  11  13
ATOM     12  C   THR A   1       2.451  -5.378  24.050  0.00  0.00    +0.233 C 
ATOM     13  N   ARG A   2       2.726  -4.865  25.299  0.00  0.00    -0.303 N 
ATOM     14  H   ARG A   2       2.549  -5.410  26.138  0.00  0.00    +0.149 HD
ATOM     15  O   THR A   1       2.668  -4.729  23.029  0.00  0.00    -0.274 OA
BRANCH  12  16
ATOM     16  CA  THR A   1       1.892  -6.812  24.069  0.00  0.00    +0.166 C 
BRANCH  16  17
ATOM     17  N   THR A   1       2.204  -7.496  22.793  0.00  0.00    -0.318 NA
ATOM     18  H1  THR A   1       3.219  -7.452  22.670  0.00  0.00    +0.119 HD
ATOM     19  H2  THR A   1       1.953  -8.479  22.858  0.00  0.00    +0.119 HD
ENDBRANCH  16  17
BRANCH  16  20
ATOM     20  CB  THR A   1       2.463  -7.611  25.260  0.00  0.00    +0.137 C 
ATOM     21  CG2 THR A   1       1.985  -9.058  25.297  0.00  0.00    +0.040 C 
BRANCH  20  22
ATOM     22  OG1 THR A   1       3.897  -7.631  25.140  0.00  0.00    -0.390 OA
ATOM     23  HG1 THR A   1       4.172  -6.741  24.860  0.00  0.00    +0.210 HD
ENDBRANCH  20  22
ENDBRANCH  16  20
ENDBRANCH  12  16
ENDBRANCH  11  13
BRANCH  11  24
ATOM     24  CB  ARG A   2       2.248  -2.540  25.925  0.00  0.00    +0.035 C 
BRANCH  24  25
ATOM     25  CG  ARG A   2       1.641  -2.876  27.288  0.00  0.00    +0.039 C 
BRANCH  25  26
ATOM     26  CD  ARG A   2       1.462  -1.625  28.144  0.00  0.00    +0.196 C 
BRANCH  26  27
ATOM     27  NE  ARG A   2       2.750  -1.190  28.701  0.00  0.00    -0.279 N 
ATOM     28  HE  ARG A   2       3.257  -1.817  29.319  0.00  0.00    +0.258 HD
ATOM     29  CZ  ARG A   2       3.323  -0.003  28.461  0.00  0.00    +0.341 C 
ATOM     30  NH2 ARG A   2       4.466   0.313  29.074  0.00  0.00    -0.292 N 
ATOM     31 HH21 ARG A   2       4.841  -0.263  29.830  0.00  0.00    +0.255 HD
ATOM     32 HH22 ARG A   2       4.955   1.175  28.881  0.00  0.00    +0.255 HD
ATOM     33  NH1 ARG A   2       2.774   0.884  27.622  0.00  0.00    -0.292 N 
ATOM     34 HH11 ARG A   2       1.904   0.687  27.147  0.00  0.00    +0.255 HD
ATOM     35 HH12 ARG A   2       3.200   1.784  27.447  0.00  0.00    +0.255 HD
ENDBRANCH  26  27
ENDBRANCH  25  26
ENDBRANCH  24  25
ENDBRANCH  11  24
ENDBRANCH   7  11
ENDBRANCH   6   9
BRANCH   6  36
ATOM     36  CB  LEU A   3       5.810  -6.669  28.245  0.00  0.00    +0.034 C 
BRANCH  36  37
ATOM     37  CG  LEU A   3       4.934  -6.639  29.513  0.00  0.00    -0.015 C 
ATOM     38  CD2 LEU A   3       5.082  -5.286  30.212  0.00  0.00    +0.007 C 
ATOM     39  CD1 LEU A   3       3.458  -6.893  29.200  0.00  0.00    +0.007 C 
ENDBRANCH  36  37
ENDBRANCH   6  36
ENDBRANCH   2   6
ENDBRANCH   1   3
BRANCH   1  40
ATOM     40  C   GLN A   4       8.943  -2.839  24.888  0.00  0.00    +0.234 C 
ATOM     41  O   GLN A   4       9.966  -2.485  24.301  0.00  0.00    -0.274 OA
ATOM     42  N   SER A   5       8.291  -2.028  25.775  0.00  0.00    -0.301 N 
ATOM     43  H   SER A   5       7.410  -2.298  26.209  0.00  0.00    +0.150 HD
BRANCH  42  44
ATOM     44  CA  SER A   5       8.808  -0.709  26.162  0.00  0.00    +0.184 C 
BRANCH  44  45
ATOM     45  C   SER A   5       7.636   0.077  26.770  0.00  0.00    +0.236 C 
ATOM     46  N   LEU A   6       7.283   1.218  26.095  0.00  0.00    -0.302 N 
ATOM     47  H   LEU A   6       7.694   1.427  25.187  0.00  0.00    +0.150 HD
ATOM     48  O   SER A   5       7.094  -0.288  27.814  0.00  0.00    -0.274 OA
BRANCH  46  49
ATOM     49  CA  LEU A   6       6.153   2.071  26.471  0.00  0.00    +0.159 C 
BRANCH  49  50
ATOM     50  C   LEU A   6       5.316   2.258  25.187  0.00  0.00    +0.234 C 
ATOM     51  O   LEU A   6       4.123   1.959  25.144  0.00  0.00    -0.274 OA
ATOM     52  N   GLU A   7       6.004   2.736  24.101  0.00  0.00    -0.302 N 
ATOM     53  H   GLU A   7       6.991   2.970  24.177  0.00  0.00    +0.150 HD
BRANCH  52  54
ATOM     54  CA  GLU A   7       5.400   2.855  22.775  0.00  0.00    +0.159 C 
BRANCH  54  55
ATOM     55  C   GLU A   7       6.514   2.520  21.765  0.00  0.00    +0.234 C 
ATOM     56  N   ASN A   8       6.340   1.353  21.062  0.00  0.00    -0.304 N 
ATOM     57  H   ASN A   8       5.525   0.764  21.225  0.00  0.00    +0.149 HD
ATOM     58  O   GLU A   7       7.476   3.265  21.577  0.00  0.00    -0.274 OA
BRANCH  56  59
ATOM     59  CA  ASN A   8       7.306   0.874  20.079  0.00  0.00    +0.145 C 
BRANCH  59  60
ATOM     60  C   ASN A   8       6.544   0.617  18.788  0.00  0.00    +0.245 C 
ATOM     61  O   ASN A   8       6.492  -0.482  18.239  0.00  0.00    -0.299 OA
ENDBRANCH  59  60
BRANCH  59  62
ATOM     62  CB  ASN A   8       7.997  -0.414  20.504  0.00  0.00    +0.125 C 
BRANCH  62  63
ATOM     63  CG  ASN A   8       9.281  -0.175  21.256  0.00  0.00    +0.213 C 
ATOM     64  ND2 ASN A   8      10.005  -1.282  21.583  0.00  0.00    -0.329 N 
ATOM     65 HD21 ASN A   8       9.948  -2.134  21.043  0.00  0.00    +0.145 HD
ATOM     66 HD22 ASN A   8      10.909  -1.092  22.002  0.00  0.00    +0.145 HD
ATOM     67  OD1 ASN A   8       9.656   0.943  21.594  0.00  0.00    -0.276 OA
ENDBRANCH  62  63
ENDBRANCH  59  62
ENDBRANCH  56  59
ENDBRANCH  54  55
BRANCH  54  68
ATOM     68  CB  GLU A   7       4.846   4.271  22.551  0.00  0.00    +0.038 C 
BRANCH  68  69
ATOM     69  CG  GLU A   7       3.351   4.397  22.837  0.00  0.00    +0.059 C 
BRANCH  69  70
ATOM     70  CD  GLU A   7       2.535   3.316  22.168  0.00  0.00    +0.023 C 
ATOM     71  OE1 GLU A   7       2.459   3.185  20.956  0.00  0.00    -0.851 OA
BRANCH  70  72
ATOM     72  OE2 GLU A   7       1.849   2.528  23.022  0.00  0.00    -0.526 OA
ATOM     73  HE2 GLU A   7       1.059   2.936  23.419  0.00  0.00    +0.290 HD
ENDBRANCH  70  72
ENDBRANCH  69  70
ENDBRANCH  68  69
ENDBRANCH  54  68
ENDBRANCH  52  54
ENDBRANCH  49  50
BRANCH  49  74
ATOM     74  CB  LEU A   6       6.608   3.453  26.975  0.00  0.00    +0.034 C 
BRANCH  74  75
ATOM     75  CG  LEU A   6       5.791   4.049  28.137  0.00  0.00    -0.015 C 
ATOM     76  CD2 LEU A   6       4.601   4.875  27.643  0.00  0.00    +0.007 C 
ATOM     77  CD1 LEU A   6       6.693   4.927  29.009  0.00  0.00    +0.007 C 
ENDBRANCH  74  75
ENDBRANCH  49  74
ENDBRANCH  46  49
ENDBRANCH  44  45
BRANCH  44  78
ATOM     78  CB  SER A   5       9.439   0.059  24.993  0.00  0.00    +0.187 C 
BRANCH  78  79
ATOM     79  OG  SER A   5      10.803   0.388  25.256  0.00  0.00    -0.393 OA
ATOM     80  H   SER A   5      10.799   1.163  25.842  0.00  0.00    +0.209 HD
ENDBRANCH  78  79
ENDBRANCH  44  78
ENDBRANCH  42  44
ENDBRANCH   1  40
BRANCH   1  81
ATOM     81  CB  GLN A   4       7.810  -4.438  23.282  0.00  0.00    +0.041 C 
BRANCH  81  82
ATOM     82  CG  GLN A   4       6.288  -4.385  23.195  0.00  0.00    +0.098 C 
BRANCH  82  83
ATOM     83  CD  GLN A   4       5.821  -5.350  22.122  0.00  0.00    +0.211 C 
ATOM     84  OE1 GLN A   4       5.959  -5.149  20.915  0.00  0.00    -0.276 OA
ATOM     85  NE2 GLN A   4       5.312  -6.522  22.599  0.00  0.00    -0.329 N 
ATOM     86 HE21 GLN A   4       5.169  -6.701  23.586  0.00  0.00    +0.145 HD
ATOM     87 HE22 GLN A   4       4.972  -7.217  21.949  0.00  0.00    +0.145 HD
ENDBRANCH  82  83
ENDBRANCH  81  82
ENDBRANCH   1  81
TORSDOF 37
ENDMDL
MODEL 13
REMARK VINA RESULT:      -4.8      2.185      7.079
REMARK  Name = TRLQSLEN-mmff94.pdb
REMARK  42 active torsions:
REMARK  status: ('A' for Active; 'I' for Inactive)
REMARK    1  A    between atoms: _1  and  _2
REMARK    2  A    between atoms: _2  and  _3
REMARK    3  A    between atoms: _2  and  _5
REMARK    4  A    between atoms: _5  and  _6
REMARK    5  A    between atoms: _5  and  _7
REMARK    6  A    between atoms: _15  and  _16
REMARK    7  A    between atoms: _16  and  _17
REMARK    8  A    between atoms: _16  and  _19
REMARK    9  A    between atoms: _19  and  _20
REMARK   10  A    between atoms: _20  and  _21
REMARK   11  A    between atoms: _21  and  _22
REMARK   12  A    between atoms: _39  and  _40
REMARK   13  A    between atoms: _40  and  _41
REMARK   14  A    between atoms: _40  and  _43
REMARK   15  A    between atoms: _43  and  _44
REMARK   16  A    between atoms: _44  and  _45
REMARK   17  A    between atoms: _44  and  _46
REMARK   18  A    between atoms: _58  and  _59
REMARK   19  A    between atoms: _59  and  _60
REMARK   20  A    between atoms: _59  and  _62
REMARK   21  A    between atoms: _62  and  _63
REMARK   22  A    between atoms: _63  and  _64
REMARK   23  A    between atoms: _75  and  _76
REMARK   24  A    between atoms: _76  and  _77
REMARK   25  A    between atoms: _76  and  _79
REMARK   26  A    between atoms: _79  and  _80
REMARK   27  A    between atoms: _86  and  _87
REMARK   28  A    between atoms: _87  and  _88
REMARK   29  A    between atoms: _87  and  _90
REMARK   30  A    between atoms: _90  and  _91
REMARK   31  A    between atoms: _91  and  _92
REMARK   32  A    between atoms: _91  and  _93
REMARK   33  A    between atoms: _105  and  _106
REMARK   34  A    between atoms: _106  and  _107
REMARK   35  A    between atoms: _106  and  _109
REMARK   36  A    between atoms: _109  and  _110
REMARK   37  A    between atoms: _110  and  _111
REMARK   38  A    between atoms: _111  and  _112
REMARK   39  A    between atoms: _120  and  _121
REMARK   40  A    between atoms: _121  and  _122
REMARK   41  A    between atoms: _121  and  _124
REMARK   42  A    between atoms: _124  and  _125
REMARK                            x       y       z     vdW  Elec       q    Type
REMARK                         _______ _______ _______ _____ _____    ______ ____
ROOT
ATOM      1  CA  GLN A   4       7.238  -4.457  22.717  0.00  0.00    +0.159 C 
ENDROOT
BRANCH   1   3
ATOM      2  C   LEU A   3       8.303  -2.213  22.574  0.00  0.00    +0.234 C 
ATOM      3  N   GLN A   4       7.636  -3.174  23.294  0.00  0.00    -0.302 N 
ATOM      4  H   GLN A   4       7.495  -3.064  24.297  0.00  0.00    +0.150 HD
ATOM      5  O   LEU A   3       8.593  -2.358  21.385  0.00  0.00    -0.274 OA
BRANCH   2   6
ATOM      6  CA  LEU A   3       8.672  -0.943  23.370  0.00  0.00    +0.159 C 
BRANCH   6   9
ATOM      7  C   ARG A   2       8.677   1.203  22.109  0.00  0.00    +0.234 C 
ATOM      8  O   ARG A   2       9.900   1.323  22.140  0.00  0.00    -0.274 OA
ATOM      9  N   LEU A   3       8.001   0.172  22.709  0.00  0.00    -0.302 N 
ATOM     10  H   LEU A   3       7.001   0.071  22.571  0.00  0.00    +0.150 HD
BRANCH   7  11
ATOM     11  CA  ARG A   2       7.783   2.195  21.347  0.00  0.00    +0.159 C 
BRANCH  11  13
ATOM     12  C   THR A   1       7.297   0.400  19.711  0.00  0.00    +0.233 C 
ATOM     13  N   ARG A   2       6.856   1.399  20.553  0.00  0.00    -0.303 N 
ATOM     14  H   ARG A   2       5.864   1.589  20.664  0.00  0.00    +0.149 HD
ATOM     15  O   THR A   1       8.493   0.159  19.575  0.00  0.00    -0.274 OA
BRANCH  12  16
ATOM     16  CA  THR A   1       6.165  -0.372  19.008  0.00  0.00    +0.166 C 
BRANCH  16  17
ATOM     17  N   THR A   1       5.372  -1.129  20.005  0.00  0.00    -0.318 NA
ATOM     18  H1  THR A   1       5.750  -0.896  20.927  0.00  0.00    +0.119 HD
ATOM     19  H2  THR A   1       4.407  -0.814  19.988  0.00  0.00    +0.119 HD
ENDBRANCH  16  17
BRANCH  16  20
ATOM     20  CB  THR A   1       5.254   0.586  18.213  0.00  0.00    +0.137 C 
ATOM     21  CG2 THR A   1       4.454   1.531  19.104  0.00  0.00    +0.040 C 
BRANCH  20  22
ATOM     22  OG1 THR A   1       6.088   1.395  17.363  0.00  0.00    -0.390 OA
ATOM     23  HG1 THR A   1       6.847   1.683  17.900  0.00  0.00    +0.210 HD
ENDBRANCH  20  22
ENDBRANCH  16  20
ENDBRANCH  12  16
ENDBRANCH  11  13
BRANCH  11  24
ATOM     24  CB  ARG A   2       7.010   3.097  22.318  0.00  0.00    +0.035 C 
BRANCH  24  25
ATOM     25  CG  ARG A   2       7.151   4.587  22.002  0.00  0.00    +0.039 C 
BRANCH  25  26
ATOM     26  CD  ARG A   2       7.671   5.367  23.207  0.00  0.00    +0.196 C 
BRANCH  26  27
ATOM     27  NE  ARG A   2       9.116   5.607  23.083  0.00  0.00    -0.279 N 
ATOM     28  HE  ARG A   2       9.437   6.431  22.584  0.00  0.00    +0.258 HD
ATOM     29  CZ  ARG A   2      10.068   4.805  23.581  0.00  0.00    +0.341 C 
ATOM     30  NH2 ARG A   2      11.352   5.088  23.352  0.00  0.00    -0.292 N 
ATOM     31 HH21 ARG A   2      11.627   5.814  22.687  0.00  0.00    +0.255 HD
ATOM     32 HH22 ARG A   2      12.099   4.538  23.752  0.00  0.00    +0.255 HD
ATOM     33  NH1 ARG A   2       9.764   3.719  24.301  0.00  0.00    -0.292 N 
ATOM     34 HH11 ARG A   2       8.803   3.466  24.488  0.00  0.00    +0.255 HD
ATOM     35 HH12 ARG A   2      10.480   3.109  24.669  0.00  0.00    +0.255 HD
ENDBRANCH  26  27
ENDBRANCH  25  26
ENDBRANCH  24  25
ENDBRANCH  11  24
ENDBRANCH   7  11
ENDBRANCH   6   9
BRANCH   6  36
ATOM     36  CB  LEU A   3       8.226  -1.076  24.833  0.00  0.00    +0.034 C 
BRANCH  36  37
ATOM     37  CG  LEU A   3       8.851  -0.042  25.790  0.00  0.00    -0.015 C 
ATOM     38  CD2 LEU A   3       8.809  -0.574  27.225  0.00  0.00    +0.007 C 
ATOM     39  CD1 LEU A   3      10.296   0.295  25.414  0.00  0.00    +0.007 C 
ENDBRANCH  36  37
ENDBRANCH   6  36
ENDBRANCH   2   6
ENDBRANCH   1   3
BRANCH   1  40
ATOM     40  C   GLN A   4       5.699  -4.430  22.637  0.00  0.00    +0.234 C 
ATOM     41  O   GLN A   4       5.109  -3.751  21.797  0.00  0.00    -0.274 OA
ATOM     42  N   SER A   5       5.038  -5.163  23.583  0.00  0.00    -0.301 N 
ATOM     43  H   SER A   5       5.527  -5.775  24.233  0.00  0.00    +0.150 HD
BRANCH  42  44
ATOM     44  CA  SER A   5       3.577  -5.127  23.726  0.00  0.00    +0.184 C 
BRANCH  44  45
ATOM     45  C   SER A   5       3.269  -5.058  25.229  0.00  0.00    +0.236 C 
ATOM     46  N   LEU A   6       3.917  -4.063  25.915  0.00  0.00    -0.302 N 
ATOM     47  H   LEU A   6       4.448  -3.353  25.413  0.00  0.00    +0.150 HD
ATOM     48  O   SER A   5       2.521  -5.876  25.768  0.00  0.00    -0.274 OA
BRANCH  46  49
ATOM     49  CA  LEU A   6       3.712  -3.785  27.339  0.00  0.00    +0.159 C 
BRANCH  49  50
ATOM     50  C   LEU A   6       3.146  -2.351  27.415  0.00  0.00    +0.234 C 
ATOM     51  O   LEU A   6       1.972  -2.104  27.138  0.00  0.00    -0.274 OA
ATOM     52  N   GLU A   7       4.048  -1.380  27.767  0.00  0.00    -0.302 N 
ATOM     53  H   GLU A   7       5.011  -1.626  27.987  0.00  0.00    +0.150 HD
BRANCH  52  54
ATOM     54  CA  GLU A   7       3.716   0.043  27.768  0.00  0.00    +0.159 C 
BRANCH  54  55
ATOM     55  C   GLU A   7       4.379   0.638  26.510  0.00  0.00    +0.234 C 
ATOM     56  N   ASN A   8       4.281   2.001  26.381  0.00  0.00    -0.304 N 
ATOM     57  H   ASN A   8       3.789   2.555  27.079  0.00  0.00    +0.149 HD
ATOM     58  O   GLU A   7       4.985  -0.060  25.696  0.00  0.00    -0.274 OA
BRANCH  56  59
ATOM     59  CA  ASN A   8       4.838   2.726  25.244  0.00  0.00    +0.145 C 
BRANCH  59  60
ATOM     60  C   ASN A   8       6.061   3.479  25.744  0.00  0.00    +0.245 C 
ATOM     61  O   ASN A   8       7.181   2.978  25.821  0.00  0.00    -0.299 OA
ENDBRANCH  59  60
BRANCH  59  62
ATOM     62  CB  ASN A   8       3.860   3.728  24.643  0.00  0.00    +0.125 C 
BRANCH  62  63
ATOM     63  CG  ASN A   8       2.962   3.120  23.596  0.00  0.00    +0.213 C 
ATOM     64  ND2 ASN A   8       3.469   3.046  22.333  0.00  0.00    -0.329 N 
ATOM     65 HD21 ASN A   8       4.464   2.998  22.162  0.00  0.00    +0.145 HD
ATOM     66 HD22 ASN A   8       2.888   2.548  21.669  0.00  0.00    +0.145 HD
ATOM     67  OD1 ASN A   8       1.822   2.736  23.839  0.00  0.00    -0.276 OA
ENDBRANCH  62  63
ENDBRANCH  59  62
ENDBRANCH  56  59
ENDBRANCH  54  55
BRANCH  54  68
ATOM     68  CB  GLU A   7       4.224   0.725  29.047  0.00  0.00    +0.038 C 
BRANCH  68  69
ATOM     69  CG  GLU A   7       5.746   0.730  29.176  0.00  0.00    +0.059 C 
BRANCH  69  70
ATOM     70  CD  GLU A   7       6.327   2.124  29.177  0.00  0.00    +0.023 C 
ATOM     71  OE1 GLU A   7       5.644   3.136  29.131  0.00  0.00    -0.851 OA
BRANCH  70  72
ATOM     72  OE2 GLU A   7       7.676   2.166  29.181  0.00  0.00    -0.526 OA
ATOM     73  HE2 GLU A   7       8.096   1.887  30.014  0.00  0.00    +0.290 HD
ENDBRANCH  70  72
ENDBRANCH  69  70
ENDBRANCH  68  69
ENDBRANCH  54  68
ENDBRANCH  52  54
ENDBRANCH  49  50
BRANCH  49  74
ATOM     74  CB  LEU A   6       5.025  -3.846  28.140  0.00  0.00    +0.034 C 
BRANCH  74  75
ATOM     75  CG  LEU A   6       5.109  -4.948  29.214  0.00  0.00    -0.015 C 
ATOM     76  CD2 LEU A   6       4.529  -6.277  28.724  0.00  0.00    +0.007 C 
ATOM     77  CD1 LEU A   6       4.366  -4.502  30.476  0.00  0.00    +0.007 C 
ENDBRANCH  74  75
ENDBRANCH  49  74
ENDBRANCH  46  49
ENDBRANCH  44  45
BRANCH  44  78
ATOM     78  CB  SER A   5       2.877  -6.328  23.075  0.00  0.00    +0.187 C 
BRANCH  78  79
ATOM     79  OG  SER A   5       3.316  -7.563  23.642  0.00  0.00    -0.393 OA
ATOM     80  H   SER A   5       2.695  -8.248  23.343  0.00  0.00    +0.209 HD
ENDBRANCH  78  79
ENDBRANCH  44  78
ENDBRANCH  42  44
ENDBRANCH   1  40
BRANCH   1  81
ATOM     81  CB  GLN A   4       7.720  -5.611  23.608  0.00  0.00    +0.041 C 
BRANCH  81  82
ATOM     82  CG  GLN A   4       8.729  -5.185  24.670  0.00  0.00    +0.098 C 
BRANCH  82  83
ATOM     83  CD  GLN A   4       8.033  -5.125  26.016  0.00  0.00    +0.211 C 
ATOM     84  OE1 GLN A   4       7.226  -5.970  26.407  0.00  0.00    -0.276 OA
ATOM     85  NE2 GLN A   4       8.439  -4.100  26.818  0.00  0.00    -0.329 N 
ATOM     86 HE21 GLN A   4       9.084  -3.381  26.511  0.00  0.00    +0.145 HD
ATOM     87 HE22 GLN A   4       8.020  -3.984  27.730  0.00  0.00    +0.145 HD
ENDBRANCH  82  83
ENDBRANCH  81  82
ENDBRANCH   1  81
TORSDOF 37
ENDMDL
MODEL 14
REMARK VINA RESULT:      -4.8      2.480      6.804
REMARK  Name = TRLQSLEN-mmff94.pdb
REMARK  42 active torsions:
REMARK  status: ('A' for Active; 'I' for Inactive)
REMARK    1  A    between atoms: _1  and  _2
REMARK    2  A    between atoms: _2  and  _3
REMARK    3  A    between atoms: _2  and  _5
REMARK    4  A    between atoms: _5  and  _6
REMARK    5  A    between atoms: _5  and  _7
REMARK    6  A    between atoms: _15  and  _16
REMARK    7  A    between atoms: _16  and  _17
REMARK    8  A    between atoms: _16  and  _19
REMARK    9  A    between atoms: _19  and  _20
REMARK   10  A    between atoms: _20  and  _21
REMARK   11  A    between atoms: _21  and  _22
REMARK   12  A    between atoms: _39  and  _40
REMARK   13  A    between atoms: _40  and  _41
REMARK   14  A    between atoms: _40  and  _43
REMARK   15  A    between atoms: _43  and  _44
REMARK   16  A    between atoms: _44  and  _45
REMARK   17  A    between atoms: _44  and  _46
REMARK   18  A    between atoms: _58  and  _59
REMARK   19  A    between atoms: _59  and  _60
REMARK   20  A    between atoms: _59  and  _62
REMARK   21  A    between atoms: _62  and  _63
REMARK   22  A    between atoms: _63  and  _64
REMARK   23  A    between atoms: _75  and  _76
REMARK   24  A    between atoms: _76  and  _77
REMARK   25  A    between atoms: _76  and  _79
REMARK   26  A    between atoms: _79  and  _80
REMARK   27  A    between atoms: _86  and  _87
REMARK   28  A    between atoms: _87  and  _88
REMARK   29  A    between atoms: _87  and  _90
REMARK   30  A    between atoms: _90  and  _91
REMARK   31  A    between atoms: _91  and  _92
REMARK   32  A    between atoms: _91  and  _93
REMARK   33  A    between atoms: _105  and  _106
REMARK   34  A    between atoms: _106  and  _107
REMARK   35  A    between atoms: _106  and  _109
REMARK   36  A    between atoms: _109  and  _110
REMARK   37  A    between atoms: _110  and  _111
REMARK   38  A    between atoms: _111  and  _112
REMARK   39  A    between atoms: _120  and  _121
REMARK   40  A    between atoms: _121  and  _122
REMARK   41  A    between atoms: _121  and  _124
REMARK   42  A    between atoms: _124  and  _125
REMARK                            x       y       z     vdW  Elec       q    Type
REMARK                         _______ _______ _______ _____ _____    ______ ____
ROOT
ATOM      1  CA  GLN A   4       7.529  -0.037  21.487  0.00  0.00    +0.159 C 
ENDROOT
BRANCH   1   3
ATOM      2  C   LEU A   3       6.135   1.125  23.190  0.00  0.00    +0.234 C 
ATOM      3  N   GLN A   4       6.638   1.041  21.915  0.00  0.00    -0.302 N 
ATOM      4  H   GLN A   4       6.312   1.676  21.188  0.00  0.00    +0.150 HD
ATOM      5  O   LEU A   3       6.416   0.307  24.068  0.00  0.00    -0.274 OA
BRANCH   2   6
ATOM      6  CA  LEU A   3       5.179   2.313  23.436  0.00  0.00    +0.159 C 
BRANCH   6   9
ATOM      7  C   ARG A   2       3.553   2.506  25.310  0.00  0.00    +0.234 C 
ATOM      8  O   ARG A   2       2.619   2.842  24.584  0.00  0.00    -0.274 OA
ATOM      9  N   LEU A   3       4.824   2.274  24.850  0.00  0.00    -0.302 N 
ATOM     10  H   LEU A   3       5.532   1.908  25.478  0.00  0.00    +0.150 HD
BRANCH   7  11
ATOM     11  CA  ARG A   2       3.367   2.273  26.818  0.00  0.00    +0.159 C 
BRANCH  11  13
ATOM     12  C   THR A   1       2.660  -0.083  27.109  0.00  0.00    +0.233 C 
ATOM     13  N   ARG A   2       3.659   0.866  27.065  0.00  0.00    -0.303 N 
ATOM     14  H   ARG A   2       4.635   0.605  27.175  0.00  0.00    +0.149 HD
ATOM     15  O   THR A   1       1.479   0.223  26.970  0.00  0.00    -0.274 OA
BRANCH  12  16
ATOM     16  CA  THR A   1       3.171  -1.521  27.314  0.00  0.00    +0.166 C 
BRANCH  16  17
ATOM     17  N   THR A   1       4.589  -1.620  26.897  0.00  0.00    -0.318 NA
ATOM     18  H1  THR A   1       4.953  -2.498  27.277  0.00  0.00    +0.119 HD
ATOM     19  H2  THR A   1       4.647  -1.685  25.884  0.00  0.00    +0.119 HD
ENDBRANCH  16  17
BRANCH  16  20
ATOM     20  CB  THR A   1       3.013  -1.958  28.786  0.00  0.00    +0.137 C 
ATOM     21  CG2 THR A   1       1.962  -1.151  29.541  0.00  0.00    +0.040 C 
BRANCH  20  22
ATOM     22  OG1 THR A   1       2.595  -3.335  28.802  0.00  0.00    -0.390 OA
ATOM     23  HG1 THR A   1       3.327  -3.850  29.185  0.00  0.00    +0.210 HD
ENDBRANCH  20  22
ENDBRANCH  16  20
ENDBRANCH  12  16
ENDBRANCH  11  13
BRANCH  11  24
ATOM     24  CB  ARG A   2       4.315   3.162  27.634  0.00  0.00    +0.035 C 
BRANCH  24  25
ATOM     25  CG  ARG A   2       5.086   2.398  28.711  0.00  0.00    +0.039 C 
BRANCH  25  26
ATOM     26  CD  ARG A   2       6.575   2.730  28.675  0.00  0.00    +0.196 C 
BRANCH  26  27
ATOM     27  NE  ARG A   2       7.255   1.942  27.636  0.00  0.00    -0.279 N 
ATOM     28  HE  ARG A   2       7.374   0.943  27.775  0.00  0.00    +0.258 HD
ATOM     29  CZ  ARG A   2       7.749   2.447  26.497  0.00  0.00    +0.341 C 
ATOM     30  NH2 ARG A   2       8.407   1.648  25.655  0.00  0.00    -0.292 N 
ATOM     31 HH21 ARG A   2       8.670   0.697  25.919  0.00  0.00    +0.255 HD
ATOM     32 HH22 ARG A   2       8.749   1.978  24.764  0.00  0.00    +0.255 HD
ATOM     33  NH1 ARG A   2       7.606   3.739  26.182  0.00  0.00    -0.292 N 
ATOM     34 HH11 ARG A   2       7.123   4.379  26.799  0.00  0.00    +0.255 HD
ATOM     35 HH12 ARG A   2       7.986   4.123  25.328  0.00  0.00    +0.255 HD
ENDBRANCH  26  27
ENDBRANCH  25  26
ENDBRANCH  24  25
ENDBRANCH  11  24
ENDBRANCH   7  11
ENDBRANCH   6   9
BRANCH   6  36
ATOM     36  CB  LEU A   3       5.861   3.637  23.066  0.00  0.00    +0.034 C 
BRANCH  36  37
ATOM     37  CG  LEU A   3       4.913   4.710  22.497  0.00  0.00    -0.015 C 
ATOM     38  CD2 LEU A   3       3.662   4.041  21.921  0.00  0.00    +0.007 C 
ATOM     39  CD1 LEU A   3       4.501   5.737  23.555  0.00  0.00    +0.007 C 
ENDBRANCH  36  37
ENDBRANCH   6  36
ENDBRANCH   2   6
ENDBRANCH   1   3
BRANCH   1  40
ATOM     40  C   GLN A   4       6.620  -1.243  21.181  0.00  0.00    +0.234 C 
ATOM     41  O   GLN A   4       5.981  -1.321  20.132  0.00  0.00    -0.274 OA
ATOM     42  N   SER A   5       6.530  -2.189  22.165  0.00  0.00    -0.301 N 
ATOM     43  H   SER A   5       7.109  -2.157  23.002  0.00  0.00    +0.150 HD
BRANCH  42  44
ATOM     44  CA  SER A   5       5.600  -3.323  22.083  0.00  0.00    +0.184 C 
BRANCH  44  45
ATOM     45  C   SER A   5       4.938  -3.468  23.462  0.00  0.00    +0.236 C 
ATOM     46  N   LEU A   6       3.927  -4.391  23.533  0.00  0.00    -0.302 N 
ATOM     47  H   LEU A   6       3.745  -5.017  22.750  0.00  0.00    +0.150 HD
ATOM     48  O   SER A   5       5.280  -2.762  24.412  0.00  0.00    -0.274 OA
BRANCH  46  49
ATOM     49  CA  LEU A   6       3.213  -4.727  24.767  0.00  0.00    +0.159 C 
BRANCH  49  50
ATOM     50  C   LEU A   6       4.266  -5.348  25.711  0.00  0.00    +0.234 C 
ATOM     51  O   LEU A   6       4.835  -6.405  25.437  0.00  0.00    -0.274 OA
ATOM     52  N   GLU A   7       4.485  -4.665  26.879  0.00  0.00    -0.302 N 
ATOM     53  H   GLU A   7       3.993  -3.795  27.068  0.00  0.00    +0.150 HD
BRANCH  52  54
ATOM     54  CA  GLU A   7       5.354  -5.173  27.939  0.00  0.00    +0.159 C 
BRANCH  54  55
ATOM     55  C   GLU A   7       6.799  -4.917  27.468  0.00  0.00    +0.234 C 
ATOM     56  N   ASN A   8       7.020  -3.694  26.884  0.00  0.00    -0.304 N 
ATOM     57  H   ASN A   8       6.260  -3.025  26.775  0.00  0.00    +0.149 HD
ATOM     58  O   GLU A   7       7.699  -5.740  27.636  0.00  0.00    -0.274 OA
BRANCH  56  59
ATOM     59  CA  ASN A   8       8.323  -3.292  26.367  0.00  0.00    +0.145 C 
BRANCH  59  60
ATOM     60  C   ASN A   8       8.399  -1.777  26.463  0.00  0.00    +0.245 C 
ATOM     61  O   ASN A   8       7.593  -1.097  27.096  0.00  0.00    -0.299 OA
ENDBRANCH  59  60
BRANCH  59  62
ATOM     62  CB  ASN A   8       8.537  -3.701  24.915  0.00  0.00    +0.125 C 
BRANCH  62  63
ATOM     63  CG  ASN A   8       9.194  -5.050  24.773  0.00  0.00    +0.213 C 
ATOM     64  ND2 ASN A   8      10.104  -5.383  25.731  0.00  0.00    -0.329 N 
ATOM     65 HD21 ASN A   8      10.060  -4.996  26.664  0.00  0.00    +0.145 HD
ATOM     66 HD22 ASN A   8      10.460  -6.330  25.670  0.00  0.00    +0.145 HD
ATOM     67  OD1 ASN A   8       8.962  -5.808  23.837  0.00  0.00    -0.276 OA
ENDBRANCH  62  63
ENDBRANCH  59  62
ENDBRANCH  56  59
ENDBRANCH  54  55
BRANCH  54  68
ATOM     68  CB  GLU A   7       5.100  -6.668  28.186  0.00  0.00    +0.038 C 
BRANCH  68  69
ATOM     69  CG  GLU A   7       4.125  -6.944  29.329  0.00  0.00    +0.059 C 
BRANCH  69  70
ATOM     70  CD  GLU A   7       2.680  -6.806  28.910  0.00  0.00    +0.023 C 
ATOM     71  OE1 GLU A   7       1.924  -5.968  29.377  0.00  0.00    -0.851 OA
BRANCH  70  72
ATOM     72  OE2 GLU A   7       2.272  -7.722  28.007  0.00  0.00    -0.526 OA
ATOM     73  HE2 GLU A   7       2.969  -8.067  27.423  0.00  0.00    +0.290 HD
ENDBRANCH  70  72
ENDBRANCH  69  70
ENDBRANCH  68  69
ENDBRANCH  54  68
ENDBRANCH  52  54
ENDBRANCH  49  50
BRANCH  49  74
ATOM     74  CB  LEU A   6       2.090  -5.752  24.532  0.00  0.00    +0.034 C 
BRANCH  74  75
ATOM     75  CG  LEU A   6       2.372  -6.829  23.466  0.00  0.00    -0.015 C 
ATOM     76  CD2 LEU A   6       1.455  -6.692  22.250  0.00  0.00    +0.007 C 
ATOM     77  CD1 LEU A   6       2.201  -8.222  24.078  0.00  0.00    +0.007 C 
ENDBRANCH  74  75
ENDBRANCH  49  74
ENDBRANCH  46  49
ENDBRANCH  44  45
BRANCH  44  78
ATOM     78  CB  SER A   5       6.280  -4.632  21.659  0.00  0.00    +0.187 C 
BRANCH  78  79
ATOM     79  OG  SER A   5       6.362  -5.557  22.743  0.00  0.00    -0.393 OA
ATOM     80  H   SER A   5       6.562  -5.040  23.542  0.00  0.00    +0.209 HD
ENDBRANCH  78  79
ENDBRANCH  44  78
ENDBRANCH  42  44
ENDBRANCH   1  40
BRANCH   1  81
ATOM     81  CB  GLN A   4       8.528  -0.373  22.603  0.00  0.00    +0.041 C 
BRANCH  81  82
ATOM     82  CG  GLN A   4       9.968   0.004  22.271  0.00  0.00    +0.098 C 
BRANCH  82  83
ATOM     83  CD  GLN A   4      10.254   1.389  22.818  0.00  0.00    +0.211 C 
ATOM     84  OE1 GLN A   4      10.719   1.599  23.940  0.00  0.00    -0.276 OA
ATOM     85  NE2 GLN A   4      10.044   2.403  21.931  0.00  0.00    -0.329 N 
ATOM     86 HE21 GLN A   4       9.642   2.258  21.012  0.00  0.00    +0.145 HD
ATOM     87 HE22 GLN A   4      10.204   3.358  22.219  0.00  0.00    +0.145 HD
ENDBRANCH  82  83
ENDBRANCH  81  82
ENDBRANCH   1  81
TORSDOF 37
ENDMDL
MODEL 15
REMARK VINA RESULT:      -4.8      2.387      7.787
REMARK  Name = TRLQSLEN-mmff94.pdb
REMARK  42 active torsions:
REMARK  status: ('A' for Active; 'I' for Inactive)
REMARK    1  A    between atoms: _1  and  _2
REMARK    2  A    between atoms: _2  and  _3
REMARK    3  A    between atoms: _2  and  _5
REMARK    4  A    between atoms: _5  and  _6
REMARK    5  A    between atoms: _5  and  _7
REMARK    6  A    between atoms: _15  and  _16
REMARK    7  A    between atoms: _16  and  _17
REMARK    8  A    between atoms: _16  and  _19
REMARK    9  A    between atoms: _19  and  _20
REMARK   10  A    between atoms: _20  and  _21
REMARK   11  A    between atoms: _21  and  _22
REMARK   12  A    between atoms: _39  and  _40
REMARK   13  A    between atoms: _40  and  _41
REMARK   14  A    between atoms: _40  and  _43
REMARK   15  A    between atoms: _43  and  _44
REMARK   16  A    between atoms: _44  and  _45
REMARK   17  A    between atoms: _44  and  _46
REMARK   18  A    between atoms: _58  and  _59
REMARK   19  A    between atoms: _59  and  _60
REMARK   20  A    between atoms: _59  and  _62
REMARK   21  A    between atoms: _62  and  _63
REMARK   22  A    between atoms: _63  and  _64
REMARK   23  A    between atoms: _75  and  _76
REMARK   24  A    between atoms: _76  and  _77
REMARK   25  A    between atoms: _76  and  _79
REMARK   26  A    between atoms: _79  and  _80
REMARK   27  A    between atoms: _86  and  _87
REMARK   28  A    between atoms: _87  and  _88
REMARK   29  A    between atoms: _87  and  _90
REMARK   30  A    between atoms: _90  and  _91
REMARK   31  A    between atoms: _91  and  _92
REMARK   32  A    between atoms: _91  and  _93
REMARK   33  A    between atoms: _105  and  _106
REMARK   34  A    between atoms: _106  and  _107
REMARK   35  A    between atoms: _106  and  _109
REMARK   36  A    between atoms: _109  and  _110
REMARK   37  A    between atoms: _110  and  _111
REMARK   38  A    between atoms: _111  and  _112
REMARK   39  A    between atoms: _120  and  _121
REMARK   40  A    between atoms: _121  and  _122
REMARK   41  A    between atoms: _121  and  _124
REMARK   42  A    between atoms: _124  and  _125
REMARK                            x       y       z     vdW  Elec       q    Type
REMARK                         _______ _______ _______ _____ _____    ______ ____
ROOT
ATOM      1  CA  GLN A   4       9.373  -0.691  25.213  0.00  0.00    +0.159 C 
ENDROOT
BRANCH   1   3
ATOM      2  C   LEU A   3       7.933  -2.686  24.843  0.00  0.00    +0.234 C 
ATOM      3  N   GLN A   4       9.175  -2.127  25.020  0.00  0.00    -0.302 N 
ATOM      4  H   GLN A   4       9.997  -2.718  25.136  0.00  0.00    +0.150 HD
ATOM      5  O   LEU A   3       6.901  -2.013  24.813  0.00  0.00    -0.274 OA
BRANCH   2   6
ATOM      6  CA  LEU A   3       7.927  -4.224  24.697  0.00  0.00    +0.159 C 
BRANCH   6   9
ATOM      7  C   ARG A   2       6.876  -5.146  26.756  0.00  0.00    +0.234 C 
ATOM      8  O   ARG A   2       7.940  -5.243  27.365  0.00  0.00    -0.274 OA
ATOM      9  N   LEU A   3       6.782  -4.709  25.460  0.00  0.00    -0.302 N 
ATOM     10  H   LEU A   3       5.870  -4.559  25.039  0.00  0.00    +0.150 HD
BRANCH   7  11
ATOM     11  CA  ARG A   2       5.528  -5.476  27.419  0.00  0.00    +0.159 C 
BRANCH  11  13
ATOM     12  C   THR A   1       3.537  -5.864  25.999  0.00  0.00    +0.233 C 
ATOM     13  N   ARG A   2       4.772  -6.269  26.459  0.00  0.00    -0.303 N 
ATOM     14  H   ARG A   2       5.203  -7.123  26.116  0.00  0.00    +0.149 HD
ATOM     15  O   THR A   1       3.011  -4.830  26.401  0.00  0.00    -0.274 OA
BRANCH  12  16
ATOM     16  CA  THR A   1       2.924  -6.801  24.940  0.00  0.00    +0.166 C 
BRANCH  16  17
ATOM     17  N   THR A   1       3.984  -7.634  24.326  0.00  0.00    -0.318 NA
ATOM     18  H1  THR A   1       3.514  -8.357  23.776  0.00  0.00    +0.119 HD
ATOM     19  H2  THR A   1       4.532  -7.074  23.680  0.00  0.00    +0.119 HD
ENDBRANCH  16  17
BRANCH  16  20
ATOM     20  CB  THR A   1       1.830  -7.694  25.562  0.00  0.00    +0.137 C 
ATOM     21  CG2 THR A   1       1.771  -9.087  24.944  0.00  0.00    +0.040 C 
BRANCH  20  22
ATOM     22  OG1 THR A   1       2.123  -7.854  26.962  0.00  0.00    -0.390 OA
ATOM     23  HG1 THR A   1       1.818  -7.046  27.410  0.00  0.00    +0.210 HD
ENDBRANCH  20  22
ENDBRANCH  16  20
ENDBRANCH  12  16
ENDBRANCH  11  13
BRANCH  11  24
ATOM     24  CB  ARG A   2       5.732  -6.267  28.717  0.00  0.00    +0.035 C 
BRANCH  24  25
ATOM     25  CG  ARG A   2       5.360  -5.477  29.973  0.00  0.00    +0.039 C 
BRANCH  25  26
ATOM     26  CD  ARG A   2       4.033  -4.743  29.800  0.00  0.00    +0.196 C 
BRANCH  26  27
ATOM     27  NE  ARG A   2       4.178  -3.322  30.144  0.00  0.00    -0.279 N 
ATOM     28  HE  ARG A   2       4.455  -3.070  31.088  0.00  0.00    +0.258 HD
ATOM     29  CZ  ARG A   2       3.965  -2.306  29.296  0.00  0.00    +0.341 C 
ATOM     30  NH2 ARG A   2       4.064  -1.050  29.736  0.00  0.00    -0.292 N 
ATOM     31 HH21 ARG A   2       4.155  -0.840  30.732  0.00  0.00    +0.255 HD
ATOM     32 HH22 ARG A   2       3.962  -0.258  29.118  0.00  0.00    +0.255 HD
ATOM     33  NH1 ARG A   2       3.648  -2.517  28.013  0.00  0.00    -0.292 N 
ATOM     34 HH11 ARG A   2       3.553  -3.454  27.644  0.00  0.00    +0.255 HD
ATOM     35 HH12 ARG A   2       3.478  -1.753  27.375  0.00  0.00    +0.255 HD
ENDBRANCH  26  27
ENDBRANCH  25  26
ENDBRANCH  24  25
ENDBRANCH  11  24
ENDBRANCH   7  11
ENDBRANCH   6   9
BRANCH   6  36
ATOM     36  CB  LEU A   3       7.824  -4.623  23.218  0.00  0.00    +0.034 C 
BRANCH  36  37
ATOM     37  CG  LEU A   3       6.431  -5.119  22.783  0.00  0.00    -0.015 C 
ATOM     38  CD2 LEU A   3       5.634  -3.959  22.181  0.00  0.00    +0.007 C 
ATOM     39  CD1 LEU A   3       6.516  -6.261  21.768  0.00  0.00    +0.007 C 
ENDBRANCH  36  37
ENDBRANCH   6  36
ENDBRANCH   2   6
ENDBRANCH   1   3
BRANCH   1  40
ATOM     40  C   GLN A   4       8.586  -0.320  26.485  0.00  0.00    +0.234 C 
ATOM     41  O   GLN A   4       8.834  -0.840  27.573  0.00  0.00    -0.274 OA
ATOM     42  N   SER A   5       7.570   0.580  26.319  0.00  0.00    -0.301 N 
ATOM     43  H   SER A   5       7.409   1.058  25.434  0.00  0.00    +0.150 HD
BRANCH  42  44
ATOM     44  CA  SER A   5       6.641   0.927  27.402  0.00  0.00    +0.184 C 
BRANCH  44  45
ATOM     45  C   SER A   5       5.231   0.975  26.794  0.00  0.00    +0.236 C 
ATOM     46  N   LEU A   6       4.789   2.223  26.435  0.00  0.00    -0.302 N 
ATOM     47  H   LEU A   6       5.425   3.019  26.454  0.00  0.00    +0.150 HD
ATOM     48  O   SER A   5       4.547  -0.044  26.686  0.00  0.00    -0.274 OA
BRANCH  46  49
ATOM     49  CA  LEU A   6       3.504   2.476  25.779  0.00  0.00    +0.159 C 
BRANCH  49  50
ATOM     50  C   LEU A   6       3.783   3.538  24.694  0.00  0.00    +0.234 C 
ATOM     51  O   LEU A   6       2.871   4.064  24.055  0.00  0.00    -0.274 OA
ATOM     52  N   GLU A   7       5.107   3.816  24.468  0.00  0.00    -0.302 N 
ATOM     53  H   GLU A   7       5.831   3.358  25.017  0.00  0.00    +0.150 HD
BRANCH  52  54
ATOM     54  CA  GLU A   7       5.555   4.701  23.395  0.00  0.00    +0.159 C 
BRANCH  54  55
ATOM     55  C   GLU A   7       6.318   3.809  22.396  0.00  0.00    +0.234 C 
ATOM     56  N   ASN A   8       5.536   2.984  21.626  0.00  0.00    -0.304 N 
ATOM     57  H   ASN A   8       4.524   2.976  21.736  0.00  0.00    +0.149 HD
ATOM     58  O   GLU A   7       7.542   3.860  22.273  0.00  0.00    -0.274 OA
BRANCH  56  59
ATOM     59  CA  ASN A   8       6.094   2.063  20.642  0.00  0.00    +0.145 C 
BRANCH  59  60
ATOM     60  C   ASN A   8       4.979   1.714  19.669  0.00  0.00    +0.245 C 
ATOM     61  O   ASN A   8       5.143   1.617  18.455  0.00  0.00    -0.299 OA
ENDBRANCH  59  60
BRANCH  59  62
ATOM     62  CB  ASN A   8       6.619   0.776  21.265  0.00  0.00    +0.125 C 
BRANCH  62  63
ATOM     63  CG  ASN A   8       7.013  -0.257  20.240  0.00  0.00    +0.213 C 
ATOM     64  ND2 ASN A   8       6.067  -1.186  19.924  0.00  0.00    -0.329 N 
ATOM     65 HD21 ASN A   8       5.079  -0.992  20.016  0.00  0.00    +0.145 HD
ATOM     66 HD22 ASN A   8       6.318  -1.810  19.165  0.00  0.00    +0.145 HD
ATOM     67  OD1 ASN A   8       8.128  -0.298  19.731  0.00  0.00    -0.276 OA
ENDBRANCH  62  63
ENDBRANCH  59  62
ENDBRANCH  56  59
ENDBRANCH  54  55
BRANCH  54  68
ATOM     68  CB  GLU A   7       6.451   5.821  23.946  0.00  0.00    +0.038 C 
BRANCH  68  69
ATOM     69  CG  GLU A   7       6.945   5.567  25.369  0.00  0.00    +0.059 C 
BRANCH  69  70
ATOM     70  CD  GLU A   7       8.321   4.945  25.406  0.00  0.00    +0.023 C 
ATOM     71  OE1 GLU A   7       9.347   5.593  25.538  0.00  0.00    -0.851 OA
BRANCH  70  72
ATOM     72  OE2 GLU A   7       8.331   3.607  25.230  0.00  0.00    -0.526 OA
ATOM     73  HE2 GLU A   7       7.662   3.265  24.611  0.00  0.00    +0.290 HD
ENDBRANCH  70  72
ENDBRANCH  69  70
ENDBRANCH  68  69
ENDBRANCH  54  68
ENDBRANCH  52  54
ENDBRANCH  49  50
BRANCH  49  74
ATOM     74  CB  LEU A   6       2.450   3.027  26.756  0.00  0.00    +0.034 C 
BRANCH  74  75
ATOM     75  CG  LEU A   6       2.903   4.200  27.647  0.00  0.00    -0.015 C 
ATOM     76  CD2 LEU A   6       2.973   3.809  29.124  0.00  0.00    +0.007 C 
ATOM     77  CD1 LEU A   6       1.945   5.382  27.477  0.00  0.00    +0.007 C 
ENDBRANCH  74  75
ENDBRANCH  49  74
ENDBRANCH  46  49
ENDBRANCH  44  45
BRANCH  44  78
ATOM     78  CB  SER A   5       6.989   2.253  28.093  0.00  0.00    +0.187 C 
BRANCH  78  79
ATOM     79  OG  SER A   5       7.815   2.048  29.239  0.00  0.00    -0.393 OA
ATOM     80  H   SER A   5       8.618   2.580  29.107  0.00  0.00    +0.209 HD
ENDBRANCH  78  79
ENDBRANCH  44  78
ENDBRANCH  42  44
ENDBRANCH   1  40
BRANCH   1  81
ATOM     81  CB  GLN A   4       8.847   0.085  23.998  0.00  0.00    +0.041 C 
BRANCH  81  82
ATOM     82  CG  GLN A   4       9.888   0.287  22.902  0.00  0.00    +0.098 C 
BRANCH  82  83
ATOM     83  CD  GLN A   4      10.172   1.770  22.758  0.00  0.00    +0.211 C 
ATOM     84  OE1 GLN A   4      10.621   2.472  23.666  0.00  0.00    -0.276 OA
ATOM     85  NE2 GLN A   4       9.978   2.264  21.503  0.00  0.00    -0.329 N 
ATOM     86 HE21 GLN A   4       9.589   1.713  20.746  0.00  0.00    +0.145 HD
ATOM     87 HE22 GLN A   4      10.138   3.246  21.323  0.00  0.00    +0.145 HD
ENDBRANCH  82  83
ENDBRANCH  81  82
ENDBRANCH   1  81
TORSDOF 37
ENDMDL
MODEL 16
REMARK VINA RESULT:      -4.8      2.079      6.750
REMARK  Name = TRLQSLEN-mmff94.pdb
REMARK  42 active torsions:
REMARK  status: ('A' for Active; 'I' for Inactive)
REMARK    1  A    between atoms: _1  and  _2
REMARK    2  A    between atoms: _2  and  _3
REMARK    3  A    between atoms: _2  and  _5
REMARK    4  A    between atoms: _5  and  _6
REMARK    5  A    between atoms: _5  and  _7
REMARK    6  A    between atoms: _15  and  _16
REMARK    7  A    between atoms: _16  and  _17
REMARK    8  A    between atoms: _16  and  _19
REMARK    9  A    between atoms: _19  and  _20
REMARK   10  A    between atoms: _20  and  _21
REMARK   11  A    between atoms: _21  and  _22
REMARK   12  A    between atoms: _39  and  _40
REMARK   13  A    between atoms: _40  and  _41
REMARK   14  A    between atoms: _40  and  _43
REMARK   15  A    between atoms: _43  and  _44
REMARK   16  A    between atoms: _44  and  _45
REMARK   17  A    between atoms: _44  and  _46
REMARK   18  A    between atoms: _58  and  _59
REMARK   19  A    between atoms: _59  and  _60
REMARK   20  A    between atoms: _59  and  _62
REMARK   21  A    between atoms: _62  and  _63
REMARK   22  A    between atoms: _63  and  _64
REMARK   23  A    between atoms: _75  and  _76
REMARK   24  A    between atoms: _76  and  _77
REMARK   25  A    between atoms: _76  and  _79
REMARK   26  A    between atoms: _79  and  _80
REMARK   27  A    between atoms: _86  and  _87
REMARK   28  A    between atoms: _87  and  _88
REMARK   29  A    between atoms: _87  and  _90
REMARK   30  A    between atoms: _90  and  _91
REMARK   31  A    between atoms: _91  and  _92
REMARK   32  A    between atoms: _91  and  _93
REMARK   33  A    between atoms: _105  and  _106
REMARK   34  A    between atoms: _106  and  _107
REMARK   35  A    between atoms: _106  and  _109
REMARK   36  A    between atoms: _109  and  _110
REMARK   37  A    between atoms: _110  and  _111
REMARK   38  A    between atoms: _111  and  _112
REMARK   39  A    between atoms: _120  and  _121
REMARK   40  A    between atoms: _121  and  _122
REMARK   41  A    between atoms: _121  and  _124
REMARK   42  A    between atoms: _124  and  _125
REMARK                            x       y       z     vdW  Elec       q    Type
REMARK                         _______ _______ _______ _____ _____    ______ ____
ROOT
ATOM      1  CA  GLN A   4       9.498   0.845  25.561  0.00  0.00    +0.159 C 
ENDROOT
BRANCH   1   3
ATOM      2  C   LEU A   3       8.142  -0.816  26.824  0.00  0.00    +0.234 C 
ATOM      3  N   GLN A   4       8.726  -0.393  25.655  0.00  0.00    -0.302 N 
ATOM      4  H   GLN A   4       8.733  -0.996  24.833  0.00  0.00    +0.150 HD
ATOM      5  O   LEU A   3       8.210  -0.168  27.870  0.00  0.00    -0.274 OA
BRANCH   2   6
ATOM      6  CA  LEU A   3       7.404  -2.169  26.731  0.00  0.00    +0.159 C 
BRANCH   6   9
ATOM      7  C   ARG A   2       5.200  -1.101  26.290  0.00  0.00    +0.234 C 
ATOM      8  O   ARG A   2       5.598  -0.472  25.311  0.00  0.00    -0.274 OA
ATOM      9  N   LEU A   3       6.007  -1.904  27.055  0.00  0.00    -0.302 N 
ATOM     10  H   LEU A   3       5.605  -2.473  27.793  0.00  0.00    +0.150 HD
BRANCH   7  11
ATOM     11  CA  ARG A   2       3.726  -1.074  26.729  0.00  0.00    +0.159 C 
BRANCH  11  13
ATOM     12  C   THR A   1       2.743  -3.321  26.389  0.00  0.00    +0.233 C 
ATOM     13  N   ARG A   2       3.402  -2.417  27.194  0.00  0.00    -0.303 N 
ATOM     14  H   ARG A   2       3.707  -2.673  28.128  0.00  0.00    +0.149 HD
ATOM     15  O   THR A   1       2.377  -3.022  25.256  0.00  0.00    -0.274 OA
BRANCH  12  16
ATOM     16  CA  THR A   1       2.549  -4.707  27.032  0.00  0.00    +0.166 C 
BRANCH  16  17
ATOM     17  N   THR A   1       2.454  -5.745  25.980  0.00  0.00    -0.318 NA
ATOM     18  H1  THR A   1       2.004  -6.560  26.403  0.00  0.00    +0.119 HD
ATOM     19  H2  THR A   1       1.848  -5.423  25.231  0.00  0.00    +0.119 HD
ENDBRANCH  16  17
BRANCH  16  20
ATOM     20  CB  THR A   1       3.704  -5.031  28.003  0.00  0.00    +0.137 C 
ATOM     21  CG2 THR A   1       3.722  -6.489  28.450  0.00  0.00    +0.040 C 
BRANCH  20  22
ATOM     22  OG1 THR A   1       4.947  -4.772  27.324  0.00  0.00    -0.390 OA
ATOM     23  HG1 THR A   1       5.648  -4.790  27.999  0.00  0.00    +0.210 HD
ENDBRANCH  20  22
ENDBRANCH  16  20
ENDBRANCH  12  16
ENDBRANCH  11  13
BRANCH  11  24
ATOM     24  CB  ARG A   2       3.506  -0.055  27.855  0.00  0.00    +0.035 C 
BRANCH  24  25
ATOM     25  CG  ARG A   2       3.290   1.371  27.348  0.00  0.00    +0.039 C 
BRANCH  25  26
ATOM     26  CD  ARG A   2       3.930   2.399  28.278  0.00  0.00    +0.196 C 
BRANCH  26  27
ATOM     27  NE  ARG A   2       5.267   1.954  28.699  0.00  0.00    -0.279 N 
ATOM     28  HE  ARG A   2       5.385   1.004  29.038  0.00  0.00    +0.258 HD
ATOM     29  CZ  ARG A   2       6.367   2.719  28.678  0.00  0.00    +0.341 C 
ATOM     30  NH2 ARG A   2       7.517   2.230  29.146  0.00  0.00    -0.292 N 
ATOM     31 HH21 ARG A   2       7.552   1.343  29.653  0.00  0.00    +0.255 HD
ATOM     32 HH22 ARG A   2       8.378   2.755  29.101  0.00  0.00    +0.255 HD
ATOM     33  NH1 ARG A   2       6.343   3.969  28.203  0.00  0.00    -0.292 N 
ATOM     34 HH11 ARG A   2       5.489   4.379  27.849  0.00  0.00    +0.255 HD
ATOM     35 HH12 ARG A   2       7.169   4.551  28.195  0.00  0.00    +0.255 HD
ENDBRANCH  26  27
ENDBRANCH  25  26
ENDBRANCH  24  25
ENDBRANCH  11  24
ENDBRANCH   7  11
ENDBRANCH   6   9
BRANCH   6  36
ATOM     36  CB  LEU A   3       7.549  -2.766  25.324  0.00  0.00    +0.034 C 
BRANCH  36  37
ATOM     37  CG  LEU A   3       8.246  -4.139  25.278  0.00  0.00    -0.015 C 
ATOM     38  CD2 LEU A   3       9.590  -4.013  24.557  0.00  0.00    +0.007 C 
ATOM     39  CD1 LEU A   3       8.469  -4.721  26.676  0.00  0.00    +0.007 C 
ENDBRANCH  36  37
ENDBRANCH   6  36
ENDBRANCH   2   6
ENDBRANCH   1   3
BRANCH   1  40
ATOM     40  C   GLN A   4       8.570   1.875  24.888  0.00  0.00    +0.234 C 
ATOM     41  O   GLN A   4       7.852   1.572  23.935  0.00  0.00    -0.274 OA
ATOM     42  N   SER A   5       8.632   3.149  25.381  0.00  0.00    -0.301 N 
ATOM     43  H   SER A   5       9.176   3.383  26.209  0.00  0.00    +0.150 HD
BRANCH  42  44
ATOM     44  CA  SER A   5       7.917   4.270  24.757  0.00  0.00    +0.184 C 
BRANCH  44  45
ATOM     45  C   SER A   5       6.499   3.776  24.429  0.00  0.00    +0.236 C 
ATOM     46  N   LEU A   6       6.205   3.681  23.093  0.00  0.00    -0.302 N 
ATOM     47  H   LEU A   6       6.937   3.803  22.395  0.00  0.00    +0.150 HD
ATOM     48  O   SER A   5       5.685   3.529  25.321  0.00  0.00    -0.274 OA
BRANCH  46  49
ATOM     49  CA  LEU A   6       4.935   3.171  22.570  0.00  0.00    +0.159 C 
BRANCH  49  50
ATOM     50  C   LEU A   6       5.307   2.174  21.451  0.00  0.00    +0.234 C 
ATOM     51  O   LEU A   6       4.911   2.325  20.295  0.00  0.00    -0.274 OA
ATOM     52  N   GLU A   7       6.065   1.102  21.845  0.00  0.00    -0.302 N 
ATOM     53  H   GLU A   7       6.371   1.014  22.811  0.00  0.00    +0.150 HD
BRANCH  52  54
ATOM     54  CA  GLU A   7       6.402   0.001  20.944  0.00  0.00    +0.159 C 
BRANCH  54  55
ATOM     55  C   GLU A   7       6.645  -1.227  21.843  0.00  0.00    +0.234 C 
ATOM     56  N   ASN A   8       5.893  -2.335  21.541  0.00  0.00    -0.304 N 
ATOM     57  H   ASN A   8       5.221  -2.315  20.776  0.00  0.00    +0.149 HD
ATOM     58  O   GLU A   7       7.482  -1.224  22.746  0.00  0.00    -0.274 OA
BRANCH  56  59
ATOM     59  CA  ASN A   8       5.983  -3.579  22.300  0.00  0.00    +0.145 C 
BRANCH  59  60
ATOM     60  C   ASN A   8       6.530  -4.641  21.359  0.00  0.00    +0.245 C 
ATOM     61  O   ASN A   8       5.843  -5.227  20.525  0.00  0.00    -0.299 OA
ENDBRANCH  59  60
BRANCH  59  62
ATOM     62  CB  ASN A   8       4.636  -4.046  22.834  0.00  0.00    +0.125 C 
BRANCH  62  63
ATOM     63  CG  ASN A   8       4.722  -5.347  23.592  0.00  0.00    +0.213 C 
ATOM     64  ND2 ASN A   8       4.065  -6.409  23.047  0.00  0.00    -0.329 N 
ATOM     65 HD21 ASN A   8       3.890  -6.473  22.054  0.00  0.00    +0.145 HD
ATOM     66 HD22 ASN A   8       4.215  -7.293  23.520  0.00  0.00    +0.145 HD
ATOM     67  OD1 ASN A   8       5.318  -5.458  24.659  0.00  0.00    -0.276 OA
ENDBRANCH  62  63
ENDBRANCH  59  62
ENDBRANCH  56  59
ENDBRANCH  54  55
BRANCH  54  68
ATOM     68  CB  GLU A   7       7.644   0.339  20.106  0.00  0.00    +0.038 C 
BRANCH  68  69
ATOM     69  CG  GLU A   7       7.400   0.291  18.599  0.00  0.00    +0.059 C 
BRANCH  69  70
ATOM     70  CD  GLU A   7       6.074  -0.338  18.243  0.00  0.00    +0.023 C 
ATOM     71  OE1 GLU A   7       5.882  -1.544  18.238  0.00  0.00    -0.851 OA
BRANCH  70  72
ATOM     72  OE2 GLU A   7       5.120   0.545  17.876  0.00  0.00    -0.526 OA
ATOM     73  HE2 GLU A   7       4.532   0.841  18.593  0.00  0.00    +0.290 HD
ENDBRANCH  70  72
ENDBRANCH  69  70
ENDBRANCH  68  69
ENDBRANCH  54  68
ENDBRANCH  52  54
ENDBRANCH  49  50
BRANCH  49  74
ATOM     74  CB  LEU A   6       4.059   4.287  21.974  0.00  0.00    +0.034 C 
BRANCH  74  75
ATOM     75  CG  LEU A   6       2.617   4.370  22.508  0.00  0.00    -0.015 C 
ATOM     76  CD2 LEU A   6       2.257   5.779  22.983  0.00  0.00    +0.007 C 
ATOM     77  CD1 LEU A   6       2.433   3.381  23.663  0.00  0.00    +0.007 C 
ENDBRANCH  74  75
ENDBRANCH  49  74
ENDBRANCH  46  49
ENDBRANCH  44  45
BRANCH  44  78
ATOM     78  CB  SER A   5       8.616   4.809  23.502  0.00  0.00    +0.187 C 
BRANCH  78  79
ATOM     79  OG  SER A   5       9.201   3.758  22.733  0.00  0.00    -0.393 OA
ATOM     80  H   SER A   5       8.479   3.158  22.479  0.00  0.00    +0.209 HD
ENDBRANCH  78  79
ENDBRANCH  44  78
ENDBRANCH  42  44
ENDBRANCH   1  40
BRANCH   1  81
ATOM     81  CB  GLN A   4      10.764   0.619  24.724  0.00  0.00    +0.041 C 
BRANCH  81  82
ATOM     82  CG  GLN A   4      10.705  -0.629  23.849  0.00  0.00    +0.098 C 
BRANCH  82  83
ATOM     83  CD  GLN A   4      10.383  -0.219  22.425  0.00  0.00    +0.211 C 
ATOM     84  OE1 GLN A   4      10.356   0.951  22.040  0.00  0.00    -0.276 OA
ATOM     85  NE2 GLN A   4      10.212  -1.260  21.561  0.00  0.00    -0.329 N 
ATOM     86 HE21 GLN A   4      10.208  -2.229  21.858  0.00  0.00    +0.145 HD
ATOM     87 HE22 GLN A   4       9.987  -1.072  20.594  0.00  0.00    +0.145 HD
ENDBRANCH  82  83
ENDBRANCH  81  82
ENDBRANCH   1  81
TORSDOF 37
ENDMDL
MODEL 17
REMARK VINA RESULT:      -4.7      2.372      7.918
REMARK  Name = TRLQSLEN-mmff94.pdb
REMARK  42 active torsions:
REMARK  status: ('A' for Active; 'I' for Inactive)
REMARK    1  A    between atoms: _1  and  _2
REMARK    2  A    between atoms: _2  and  _3
REMARK    3  A    between atoms: _2  and  _5
REMARK    4  A    between atoms: _5  and  _6
REMARK    5  A    between atoms: _5  and  _7
REMARK    6  A    between atoms: _15  and  _16
REMARK    7  A    between atoms: _16  and  _17
REMARK    8  A    between atoms: _16  and  _19
REMARK    9  A    between atoms: _19  and  _20
REMARK   10  A    between atoms: _20  and  _21
REMARK   11  A    between atoms: _21  and  _22
REMARK   12  A    between atoms: _39  and  _40
REMARK   13  A    between atoms: _40  and  _41
REMARK   14  A    between atoms: _40  and  _43
REMARK   15  A    between atoms: _43  and  _44
REMARK   16  A    between atoms: _44  and  _45
REMARK   17  A    between atoms: _44  and  _46
REMARK   18  A    between atoms: _58  and  _59
REMARK   19  A    between atoms: _59  and  _60
REMARK   20  A    between atoms: _59  and  _62
REMARK   21  A    between atoms: _62  and  _63
REMARK   22  A    between atoms: _63  and  _64
REMARK   23  A    between atoms: _75  and  _76
REMARK   24  A    between atoms: _76  and  _77
REMARK   25  A    between atoms: _76  and  _79
REMARK   26  A    between atoms: _79  and  _80
REMARK   27  A    between atoms: _86  and  _87
REMARK   28  A    between atoms: _87  and  _88
REMARK   29  A    between atoms: _87  and  _90
REMARK   30  A    between atoms: _90  and  _91
REMARK   31  A    between atoms: _91  and  _92
REMARK   32  A    between atoms: _91  and  _93
REMARK   33  A    between atoms: _105  and  _106
REMARK   34  A    between atoms: _106  and  _107
REMARK   35  A    between atoms: _106  and  _109
REMARK   36  A    between atoms: _109  and  _110
REMARK   37  A    between atoms: _110  and  _111
REMARK   38  A    between atoms: _111  and  _112
REMARK   39  A    between atoms: _120  and  _121
REMARK   40  A    between atoms: _121  and  _122
REMARK   41  A    between atoms: _121  and  _124
REMARK   42  A    between atoms: _124  and  _125
REMARK                            x       y       z     vdW  Elec       q    Type
REMARK                         _______ _______ _______ _____ _____    ______ ____
ROOT
ATOM      1  CA  GLN A   4       7.566  -1.568  24.997  0.00  0.00    +0.159 C 
ENDROOT
BRANCH   1   3
ATOM      2  C   LEU A   3       7.154  -1.116  22.585  0.00  0.00    +0.234 C 
ATOM      3  N   GLN A   4       7.273  -0.672  23.879  0.00  0.00    -0.302 N 
ATOM      4  H   GLN A   4       7.271   0.326  24.085  0.00  0.00    +0.150 HD
ATOM      5  O   LEU A   3       7.265  -2.305  22.279  0.00  0.00    -0.274 OA
BRANCH   2   6
ATOM      6  CA  LEU A   3       6.884  -0.012  21.540  0.00  0.00    +0.159 C 
BRANCH   6   9
ATOM      7  C   ARG A   2       6.316   2.367  22.007  0.00  0.00    +0.234 C 
ATOM      8  O   ARG A   2       5.407   2.407  21.181  0.00  0.00    -0.274 OA
ATOM      9  N   LEU A   3       7.104   1.263  22.215  0.00  0.00    -0.302 N 
ATOM     10  H   LEU A   3       7.777   1.255  22.975  0.00  0.00    +0.150 HD
BRANCH   7  11
ATOM     11  CA  ARG A   2       6.633   3.558  22.926  0.00  0.00    +0.159 C 
BRANCH  11  13
ATOM     12  C   THR A   1       4.854   2.823  24.483  0.00  0.00    +0.233 C 
ATOM     13  N   ARG A   2       5.434   3.809  23.715  0.00  0.00    -0.303 N 
ATOM     14  H   ARG A   2       5.055   4.752  23.702  0.00  0.00    +0.149 HD
ATOM     15  O   THR A   1       5.309   1.682  24.512  0.00  0.00    -0.274 OA
BRANCH  12  16
ATOM     16  CA  THR A   1       3.635   3.297  25.297  0.00  0.00    +0.166 C 
BRANCH  16  17
ATOM     17  N   THR A   1       3.888   4.647  25.850  0.00  0.00    -0.318 NA
ATOM     18  H1  THR A   1       3.603   5.322  25.135  0.00  0.00    +0.119 HD
ATOM     19  H2  THR A   1       3.298   4.804  26.662  0.00  0.00    +0.119 HD
ENDBRANCH  16  17
BRANCH  16  20
ATOM     20  CB  THR A   1       2.360   3.303  24.427  0.00  0.00    +0.137 C 
ATOM     21  CG2 THR A   1       1.779   4.698  24.223  0.00  0.00    +0.040 C 
BRANCH  20  22
ATOM     22  OG1 THR A   1       2.700   2.783  23.129  0.00  0.00    -0.390 OA
ATOM     23  HG1 THR A   1       1.987   3.046  22.521  0.00  0.00    +0.210 HD
ENDBRANCH  20  22
ENDBRANCH  16  20
ENDBRANCH  12  16
ENDBRANCH  11  13
BRANCH  11  24
ATOM     24  CB  ARG A   2       7.818   3.243  23.848  0.00  0.00    +0.035 C 
BRANCH  24  25
ATOM     25  CG  ARG A   2       9.000   4.196  23.662  0.00  0.00    +0.039 C 
BRANCH  25  26
ATOM     26  CD  ARG A   2      10.333   3.477  23.845  0.00  0.00    +0.196 C 
BRANCH  26  27
ATOM     27  NE  ARG A   2      10.358   2.228  23.070  0.00  0.00    -0.279 N 
ATOM     28  HE  ARG A   2      10.228   2.271  22.063  0.00  0.00    +0.258 HD
ATOM     29  CZ  ARG A   2      10.535   1.008  23.595  0.00  0.00    +0.341 C 
ATOM     30  NH2 ARG A   2      10.474  -0.064  22.803  0.00  0.00    -0.292 N 
ATOM     31 HH21 ARG A   2      10.153   0.006  21.835  0.00  0.00    +0.255 HD
ATOM     32 HH22 ARG A   2      10.653  -0.996  23.150  0.00  0.00    +0.255 HD
ATOM     33  NH1 ARG A   2      10.767   0.833  24.901  0.00  0.00    -0.292 N 
ATOM     34 HH11 ARG A   2      10.811   1.620  25.535  0.00  0.00    +0.255 HD
ATOM     35 HH12 ARG A   2      10.892  -0.087  25.300  0.00  0.00    +0.255 HD
ENDBRANCH  26  27
ENDBRANCH  25  26
ENDBRANCH  24  25
ENDBRANCH  11  24
ENDBRANCH   7  11
ENDBRANCH   6   9
BRANCH   6  36
ATOM     36  CB  LEU A   3       7.817  -0.173  20.332  0.00  0.00    +0.034 C 
BRANCH  36  37
ATOM     37  CG  LEU A   3       7.094  -0.330  18.980  0.00  0.00    -0.015 C 
ATOM     38  CD2 LEU A   3       5.781  -1.090  19.180  0.00  0.00    +0.007 C 
ATOM     39  CD1 LEU A   3       6.805   1.021  18.320  0.00  0.00    +0.007 C 
ENDBRANCH  36  37
ENDBRANCH   6  36
ENDBRANCH   2   6
ENDBRANCH   1   3
BRANCH   1  40
ATOM     40  C   GLN A   4       7.857  -0.658  26.206  0.00  0.00    +0.234 C 
ATOM     41  O   GLN A   4       8.955  -0.656  26.763  0.00  0.00    -0.274 OA
ATOM     42  N   SER A   5       6.811   0.104  26.648  0.00  0.00    -0.301 N 
ATOM     43  H   SER A   5       5.926   0.151  26.146  0.00  0.00    +0.150 HD
BRANCH  42  44
ATOM     44  CA  SER A   5       6.889   0.914  27.870  0.00  0.00    +0.184 C 
BRANCH  44  45
ATOM     45  C   SER A   5       5.726   0.480  28.777  0.00  0.00    +0.236 C 
ATOM     46  N   LEU A   6       4.894  -0.473  28.248  0.00  0.00    -0.302 N 
ATOM     47  H   LEU A   6       5.134  -0.939  27.374  0.00  0.00    +0.150 HD
ATOM     48  O   SER A   5       5.550   0.997  29.882  0.00  0.00    -0.274 OA
BRANCH  46  49
ATOM     49  CA  LEU A   6       3.769  -1.067  28.973  0.00  0.00    +0.159 C 
BRANCH  49  50
ATOM     50  C   LEU A   6       3.976  -2.596  28.898  0.00  0.00    +0.234 C 
ATOM     51  O   LEU A   6       4.595  -3.207  29.769  0.00  0.00    -0.274 OA
ATOM     52  N   GLU A   7       3.461  -3.205  27.783  0.00  0.00    -0.302 N 
ATOM     53  H   GLU A   7       2.955  -2.663  27.086  0.00  0.00    +0.150 HD
BRANCH  52  54
ATOM     54  CA  GLU A   7       3.672  -4.621  27.490  0.00  0.00    +0.159 C 
BRANCH  54  55
ATOM     55  C   GLU A   7       3.175  -4.838  26.047  0.00  0.00    +0.234 C 
ATOM     56  N   ASN A   8       3.698  -5.931  25.402  0.00  0.00    -0.304 N 
ATOM     57  H   ASN A   8       4.374  -6.535  25.867  0.00  0.00    +0.149 HD
ATOM     58  O   GLU A   7       2.340  -4.101  25.523  0.00  0.00    -0.274 OA
BRANCH  56  59
ATOM     59  CA  ASN A   8       3.351  -6.276  24.028  0.00  0.00    +0.145 C 
BRANCH  59  60
ATOM     60  C   ASN A   8       2.620  -7.608  24.068  0.00  0.00    +0.245 C 
ATOM     61  O   ASN A   8       2.957  -8.545  24.790  0.00  0.00    -0.299 OA
ENDBRANCH  59  60
BRANCH  59  62
ATOM     62  CB  ASN A   8       4.569  -6.415  23.125  0.00  0.00    +0.125 C 
BRANCH  62  63
ATOM     63  CG  ASN A   8       5.044  -5.096  22.569  0.00  0.00    +0.213 C 
ATOM     64  ND2 ASN A   8       6.158  -5.138  21.784  0.00  0.00    -0.329 N 
ATOM     65 HD21 ASN A   8       6.414  -5.967  21.267  0.00  0.00    +0.145 HD
ATOM     66 HD22 ASN A   8       6.403  -4.258  21.344  0.00  0.00    +0.145 HD
ATOM     67  OD1 ASN A   8       4.494  -4.030  22.822  0.00  0.00    -0.276 OA
ENDBRANCH  62  63
ENDBRANCH  59  62
ENDBRANCH  56  59
ENDBRANCH  54  55
BRANCH  54  68
ATOM     68  CB  GLU A   7       2.909  -5.507  28.486  0.00  0.00    +0.038 C 
BRANCH  68  69
ATOM     69  CG  GLU A   7       3.788  -6.540  29.188  0.00  0.00    +0.059 C 
BRANCH  69  70
ATOM     70  CD  GLU A   7       5.214  -6.528  28.690  0.00  0.00    +0.023 C 
ATOM     71  OE1 GLU A   7       5.588  -7.153  27.710  0.00  0.00    -0.851 OA
BRANCH  70  72
ATOM     72  OE2 GLU A   7       6.063  -5.804  29.450  0.00  0.00    -0.526 OA
ATOM     73  HE2 GLU A   7       6.757  -5.330  28.959  0.00  0.00    +0.290 HD
ENDBRANCH  70  72
ENDBRANCH  69  70
ENDBRANCH  68  69
ENDBRANCH  54  68
ENDBRANCH  52  54
ENDBRANCH  49  50
BRANCH  49  74
ATOM     74  CB  LEU A   6       2.413  -0.716  28.336  0.00  0.00    +0.034 C 
BRANCH  74  75
ATOM     75  CG  LEU A   6       1.660   0.473  28.964  0.00  0.00    -0.015 C 
ATOM     76  CD2 LEU A   6       1.973   1.793  28.257  0.00  0.00    +0.007 C 
ATOM     77  CD1 LEU A   6       2.022   0.592  30.447  0.00  0.00    +0.007 C 
ENDBRANCH  74  75
ENDBRANCH  49  74
ENDBRANCH  46  49
ENDBRANCH  44  45
BRANCH  44  78
ATOM     78  CB  SER A   5       6.842   2.423  27.598  0.00  0.00    +0.187 C 
BRANCH  78  79
ATOM     79  OG  SER A   5       7.437   3.168  28.661  0.00  0.00    -0.393 OA
ATOM     80  H   SER A   5       7.580   4.070  28.328  0.00  0.00    +0.209 HD
ENDBRANCH  78  79
ENDBRANCH  44  78
ENDBRANCH  42  44
ENDBRANCH   1  40
BRANCH   1  81
ATOM     81  CB  GLN A   4       8.781  -2.447  24.667  0.00  0.00    +0.041 C 
BRANCH  81  82
ATOM     82  CG  GLN A   4       8.881  -3.701  25.529  0.00  0.00    +0.098 C 
BRANCH  82  83
ATOM     83  CD  GLN A   4       8.127  -4.828  24.849  0.00  0.00    +0.211 C 
ATOM     84  OE1 GLN A   4       8.449  -5.307  23.761  0.00  0.00    -0.276 OA
ATOM     85  NE2 GLN A   4       7.103  -5.347  25.583  0.00  0.00    -0.329 N 
ATOM     86 HE21 GLN A   4       6.805  -4.956  26.470  0.00  0.00    +0.145 HD
ATOM     87 HE22 GLN A   4       6.545  -6.097  25.200  0.00  0.00    +0.145 HD
ENDBRANCH  82  83
ENDBRANCH  81  82
ENDBRANCH   1  81
TORSDOF 37
ENDMDL
MODEL 18
REMARK VINA RESULT:      -4.7      2.356      6.805
REMARK  Name = TRLQSLEN-mmff94.pdb
REMARK  42 active torsions:
REMARK  status: ('A' for Active; 'I' for Inactive)
REMARK    1  A    between atoms: _1  and  _2
REMARK    2  A    between atoms: _2  and  _3
REMARK    3  A    between atoms: _2  and  _5
REMARK    4  A    between atoms: _5  and  _6
REMARK    5  A    between atoms: _5  and  _7
REMARK    6  A    between atoms: _15  and  _16
REMARK    7  A    between atoms: _16  and  _17
REMARK    8  A    between atoms: _16  and  _19
REMARK    9  A    between atoms: _19  and  _20
REMARK   10  A    between atoms: _20  and  _21
REMARK   11  A    between atoms: _21  and  _22
REMARK   12  A    between atoms: _39  and  _40
REMARK   13  A    between atoms: _40  and  _41
REMARK   14  A    between atoms: _40  and  _43
REMARK   15  A    between atoms: _43  and  _44
REMARK   16  A    between atoms: _44  and  _45
REMARK   17  A    between atoms: _44  and  _46
REMARK   18  A    between atoms: _58  and  _59
REMARK   19  A    between atoms: _59  and  _60
REMARK   20  A    between atoms: _59  and  _62
REMARK   21  A    between atoms: _62  and  _63
REMARK   22  A    between atoms: _63  and  _64
REMARK   23  A    between atoms: _75  and  _76
REMARK   24  A    between atoms: _76  and  _77
REMARK   25  A    between atoms: _76  and  _79
REMARK   26  A    between atoms: _79  and  _80
REMARK   27  A    between atoms: _86  and  _87
REMARK   28  A    between atoms: _87  and  _88
REMARK   29  A    between atoms: _87  and  _90
REMARK   30  A    between atoms: _90  and  _91
REMARK   31  A    between atoms: _91  and  _92
REMARK   32  A    between atoms: _91  and  _93
REMARK   33  A    between atoms: _105  and  _106
REMARK   34  A    between atoms: _106  and  _107
REMARK   35  A    between atoms: _106  and  _109
REMARK   36  A    between atoms: _109  and  _110
REMARK   37  A    between atoms: _110  and  _111
REMARK   38  A    between atoms: _111  and  _112
REMARK   39  A    between atoms: _120  and  _121
REMARK   40  A    between atoms: _121  and  _122
REMARK   41  A    between atoms: _121  and  _124
REMARK   42  A    between atoms: _124  and  _125
REMARK                            x       y       z     vdW  Elec       q    Type
REMARK                         _______ _______ _______ _____ _____    ______ ____
ROOT
ATOM      1  CA  GLN A   4       4.945   0.479  27.460  0.00  0.00    +0.159 C 
ENDROOT
BRANCH   1   3
ATOM      2  C   LEU A   3       6.099   2.448  28.450  0.00  0.00    +0.234 C 
ATOM      3  N   GLN A   4       5.591   1.787  27.359  0.00  0.00    -0.302 N 
ATOM      4  H   GLN A   4       5.549   2.245  26.450  0.00  0.00    +0.150 HD
ATOM      5  O   LEU A   3       6.065   1.974  29.588  0.00  0.00    -0.274 OA
BRANCH   2   6
ATOM      6  CA  LEU A   3       6.706   3.835  28.147  0.00  0.00    +0.159 C 
BRANCH   6   9
ATOM      7  C   ARG A   2       7.708   4.768  26.068  0.00  0.00    +0.234 C 
ATOM      8  O   ARG A   2       8.426   5.567  26.665  0.00  0.00    -0.274 OA
ATOM      9  N   LEU A   3       6.821   3.930  26.696  0.00  0.00    -0.302 N 
ATOM     10  H   LEU A   3       6.323   3.225  26.162  0.00  0.00    +0.150 HD
BRANCH   7  11
ATOM     11  CA  ARG A   2       7.767   4.604  24.540  0.00  0.00    +0.159 C 
BRANCH  11  13
ATOM     12  C   THR A   1       9.891   3.560  23.812  0.00  0.00    +0.233 C 
ATOM     13  N   ARG A   2       8.599   3.437  24.275  0.00  0.00    -0.303 N 
ATOM     14  H   ARG A   2       8.198   2.525  24.473  0.00  0.00    +0.149 HD
ATOM     15  O   THR A   1      10.386   4.659  23.577  0.00  0.00    -0.274 OA
BRANCH  12  16
ATOM     16  CA  THR A   1      10.631   2.218  23.655  0.00  0.00    +0.166 C 
BRANCH  16  17
ATOM     17  N   THR A   1      10.269   1.307  24.766  0.00  0.00    -0.318 NA
ATOM     18  H1  THR A   1      11.006   1.389  25.472  0.00  0.00    +0.119 HD
ATOM     19  H2  THR A   1       9.404   1.617  25.199  0.00  0.00    +0.119 HD
ENDBRANCH  16  17
BRANCH  16  20
ATOM     20  CB  THR A   1      10.304   1.564  22.296  0.00  0.00    +0.137 C 
ATOM     21  CG2 THR A   1       9.573   0.232  22.432  0.00  0.00    +0.040 C 
BRANCH  20  22
ATOM     22  OG1 THR A   1       9.446   2.456  21.563  0.00  0.00    -0.390 OA
ATOM     23  HG1 THR A   1       8.765   1.908  21.135  0.00  0.00    +0.210 HD
ENDBRANCH  20  22
ENDBRANCH  16  20
ENDBRANCH  12  16
ENDBRANCH  11  13
BRANCH  11  24
ATOM     24  CB  ARG A   2       6.364   4.401  23.953  0.00  0.00    +0.035 C 
BRANCH  24  25
ATOM     25  CG  ARG A   2       6.377   4.025  22.471  0.00  0.00    +0.039 C 
BRANCH  25  26
ATOM     26  CD  ARG A   2       5.800   2.631  22.243  0.00  0.00    +0.196 C 
BRANCH  26  27
ATOM     27  NE  ARG A   2       6.723   1.813  21.443  0.00  0.00    -0.279 N 
ATOM     28  HE  ARG A   2       7.649   1.613  21.810  0.00  0.00    +0.258 HD
ATOM     29  CZ  ARG A   2       6.440   1.302  20.236  0.00  0.00    +0.341 C 
ATOM     30  NH2 ARG A   2       7.380   0.629  19.570  0.00  0.00    -0.292 N 
ATOM     31 HH21 ARG A   2       8.351   0.614  19.888  0.00  0.00    +0.255 HD
ATOM     32 HH22 ARG A   2       7.191   0.185  18.683  0.00  0.00    +0.255 HD
ATOM     33  NH1 ARG A   2       5.235   1.456  19.674  0.00  0.00    -0.292 N 
ATOM     34 HH11 ARG A   2       4.500   1.969  20.143  0.00  0.00    +0.255 HD
ATOM     35 HH12 ARG A   2       5.024   1.079  18.761  0.00  0.00    +0.255 HD
ENDBRANCH  26  27
ENDBRANCH  25  26
ENDBRANCH  24  25
ENDBRANCH  11  24
ENDBRANCH   7  11
ENDBRANCH   6   9
BRANCH   6  36
ATOM     36  CB  LEU A   3       5.812   4.948  28.711  0.00  0.00    +0.034 C 
BRANCH  36  37
ATOM     37  CG  LEU A   3       4.303   4.741  28.475  0.00  0.00    -0.015 C 
ATOM     38  CD2 LEU A   3       3.523   5.165  29.721  0.00  0.00    +0.007 C 
ATOM     39  CD1 LEU A   3       3.795   5.526  27.263  0.00  0.00    +0.007 C 
ENDBRANCH  36  37
ENDBRANCH   6  36
ENDBRANCH   2   6
ENDBRANCH   1   3
BRANCH   1  40
ATOM     40  C   GLN A   4       5.631  -0.417  26.409  0.00  0.00    +0.234 C 
ATOM     41  O   GLN A   4       5.183  -0.532  25.269  0.00  0.00    -0.274 OA
ATOM     42  N   SER A   5       6.730  -1.108  26.838  0.00  0.00    -0.301 N 
ATOM     43  H   SER A   5       7.137  -0.961  27.760  0.00  0.00    +0.150 HD
BRANCH  42  44
ATOM     44  CA  SER A   5       7.408  -2.106  26.000  0.00  0.00    +0.184 C 
BRANCH  44  45
ATOM     45  C   SER A   5       7.445  -3.418  26.798  0.00  0.00    +0.236 C 
ATOM     46  N   LEU A   6       6.240  -3.830  27.308  0.00  0.00    -0.302 N 
ATOM     47  H   LEU A   6       5.380  -3.353  27.043  0.00  0.00    +0.150 HD
ATOM     48  O   SER A   5       8.503  -4.020  26.990  0.00  0.00    -0.274 OA
BRANCH  46  49
ATOM     49  CA  LEU A   6       6.049  -5.084  28.040  0.00  0.00    +0.159 C 
BRANCH  49  50
ATOM     50  C   LEU A   6       5.298  -6.028  27.076  0.00  0.00    +0.234 C 
ATOM     51  O   LEU A   6       5.210  -7.236  27.293  0.00  0.00    -0.274 OA
ATOM     52  N   GLU A   7       4.780  -5.433  25.954  0.00  0.00    -0.302 N 
ATOM     53  H   GLU A   7       4.875  -4.430  25.812  0.00  0.00    +0.150 HD
BRANCH  52  54
ATOM     54  CA  GLU A   7       4.148  -6.194  24.878  0.00  0.00    +0.159 C 
BRANCH  54  55
ATOM     55  C   GLU A   7       5.108  -6.112  23.676  0.00  0.00    +0.234 C 
ATOM     56  N   ASN A   8       6.126  -5.199  23.796  0.00  0.00    -0.304 N 
ATOM     57  H   ASN A   8       6.210  -4.621  24.630  0.00  0.00    +0.149 HD
ATOM     58  O   GLU A   7       4.990  -6.841  22.691  0.00  0.00    -0.274 OA
BRANCH  56  59
ATOM     59  CA  ASN A   8       7.114  -4.978  22.745  0.00  0.00    +0.145 C 
BRANCH  59  60
ATOM     60  C   ASN A   8       8.388  -5.694  23.168  0.00  0.00    +0.245 C 
ATOM     61  O   ASN A   8       8.959  -5.487  24.237  0.00  0.00    -0.299 OA
ENDBRANCH  59  60
BRANCH  59  62
ATOM     62  CB  ASN A   8       7.431  -3.504  22.529  0.00  0.00    +0.125 C 
BRANCH  62  63
ATOM     63  CG  ASN A   8       6.209  -2.678  22.217  0.00  0.00    +0.213 C 
ATOM     64  ND2 ASN A   8       6.206  -1.401  22.693  0.00  0.00    -0.329 N 
ATOM     65 HD21 ASN A   8       7.064  -0.895  22.866  0.00  0.00    +0.145 HD
ATOM     66 HD22 ASN A   8       5.421  -0.835  22.391  0.00  0.00    +0.145 HD
ATOM     67  OD1 ASN A   8       5.246  -3.121  21.600  0.00  0.00    -0.276 OA
ENDBRANCH  62  63
ENDBRANCH  59  62
ENDBRANCH  56  59
ENDBRANCH  54  55
BRANCH  54  68
ATOM     68  CB  GLU A   7       2.767  -5.616  24.536  0.00  0.00    +0.038 C 
BRANCH  68  69
ATOM     69  CG  GLU A   7       1.634  -6.637  24.625  0.00  0.00    +0.059 C 
BRANCH  69  70
ATOM     70  CD  GLU A   7       2.005  -7.974  24.027  0.00  0.00    +0.023 C 
ATOM     71  OE1 GLU A   7       2.232  -8.969  24.697  0.00  0.00    -0.851 OA
BRANCH  70  72
ATOM     72  OE2 GLU A   7       2.115  -7.970  22.682  0.00  0.00    -0.526 OA
ATOM     73  HE2 GLU A   7       2.954  -7.616  22.336  0.00  0.00    +0.290 HD
ENDBRANCH  70  72
ENDBRANCH  69  70
ENDBRANCH  68  69
ENDBRANCH  54  68
ENDBRANCH  52  54
ENDBRANCH  49  50
BRANCH  49  74
ATOM     74  CB  LEU A   6       5.203  -4.894  29.312  0.00  0.00    +0.034 C 
BRANCH  74  75
ATOM     75  CG  LEU A   6       3.677  -5.003  29.129  0.00  0.00    -0.015 C 
ATOM     76  CD2 LEU A   6       3.007  -3.631  29.041  0.00  0.00    +0.007 C 
ATOM     77  CD1 LEU A   6       3.069  -5.794  30.291  0.00  0.00    +0.007 C 
ENDBRANCH  74  75
ENDBRANCH  49  74
ENDBRANCH  46  49
ENDBRANCH  44  45
BRANCH  44  78
ATOM     78  CB  SER A   5       8.819  -1.679  25.576  0.00  0.00    +0.187 C 
BRANCH  78  79
ATOM     79  OG  SER A   5       9.431  -2.653  24.731  0.00  0.00    -0.393 OA
ATOM     80  H   SER A   5       8.815  -3.402  24.670  0.00  0.00    +0.209 HD
ENDBRANCH  78  79
ENDBRANCH  44  78
ENDBRANCH  42  44
ENDBRANCH   1  40
BRANCH   1  81
ATOM     81  CB  GLN A   4       3.442   0.607  27.173  0.00  0.00    +0.041 C 
BRANCH  81  82
ATOM     82  CG  GLN A   4       2.559  -0.059  28.224  0.00  0.00    +0.098 C 
BRANCH  82  83
ATOM     83  CD  GLN A   4       2.825   0.585  29.571  0.00  0.00    +0.211 C 
ATOM     84  OE1 GLN A   4       2.670   1.786  29.797  0.00  0.00    -0.276 OA
ATOM     85  NE2 GLN A   4       3.163  -0.291  30.560  0.00  0.00    -0.329 N 
ATOM     86 HE21 GLN A   4       3.317  -1.279  30.394  0.00  0.00    +0.145 HD
ATOM     87 HE22 GLN A   4       3.364   0.058  31.487  0.00  0.00    +0.145 HD
ENDBRANCH  82  83
ENDBRANCH  81  82
ENDBRANCH   1  81
TORSDOF 37
ENDMDL
MODEL 19
REMARK VINA RESULT:      -4.7      2.290      6.616
REMARK  Name = TRLQSLEN-mmff94.pdb
REMARK  42 active torsions:
REMARK  status: ('A' for Active; 'I' for Inactive)
REMARK    1  A    between atoms: _1  and  _2
REMARK    2  A    between atoms: _2  and  _3
REMARK    3  A    between atoms: _2  and  _5
REMARK    4  A    between atoms: _5  and  _6
REMARK    5  A    between atoms: _5  and  _7
REMARK    6  A    between atoms: _15  and  _16
REMARK    7  A    between atoms: _16  and  _17
REMARK    8  A    between atoms: _16  and  _19
REMARK    9  A    between atoms: _19  and  _20
REMARK   10  A    between atoms: _20  and  _21
REMARK   11  A    between atoms: _21  and  _22
REMARK   12  A    between atoms: _39  and  _40
REMARK   13  A    between atoms: _40  and  _41
REMARK   14  A    between atoms: _40  and  _43
REMARK   15  A    between atoms: _43  and  _44
REMARK   16  A    between atoms: _44  and  _45
REMARK   17  A    between atoms: _44  and  _46
REMARK   18  A    between atoms: _58  and  _59
REMARK   19  A    between atoms: _59  and  _60
REMARK   20  A    between atoms: _59  and  _62
REMARK   21  A    between atoms: _62  and  _63
REMARK   22  A    between atoms: _63  and  _64
REMARK   23  A    between atoms: _75  and  _76
REMARK   24  A    between atoms: _76  and  _77
REMARK   25  A    between atoms: _76  and  _79
REMARK   26  A    between atoms: _79  and  _80
REMARK   27  A    between atoms: _86  and  _87
REMARK   28  A    between atoms: _87  and  _88
REMARK   29  A    between atoms: _87  and  _90
REMARK   30  A    between atoms: _90  and  _91
REMARK   31  A    between atoms: _91  and  _92
REMARK   32  A    between atoms: _91  and  _93
REMARK   33  A    between atoms: _105  and  _106
REMARK   34  A    between atoms: _106  and  _107
REMARK   35  A    between atoms: _106  and  _109
REMARK   36  A    between atoms: _109  and  _110
REMARK   37  A    between atoms: _110  and  _111
REMARK   38  A    between atoms: _111  and  _112
REMARK   39  A    between atoms: _120  and  _121
REMARK   40  A    between atoms: _121  and  _122
REMARK   41  A    between atoms: _121  and  _124
REMARK   42  A    between atoms: _124  and  _125
REMARK                            x       y       z     vdW  Elec       q    Type
REMARK                         _______ _______ _______ _____ _____    ______ ____
ROOT
ATOM      1  CA  GLN A   4       9.653  -1.530  23.488  0.00  0.00    +0.159 C 
ENDROOT
BRANCH   1   3
ATOM      2  C   LEU A   3       8.313   0.021  22.077  0.00  0.00    +0.234 C 
ATOM      3  N   GLN A   4       8.407  -0.853  23.132  0.00  0.00    -0.302 N 
ATOM      4  H   GLN A   4       7.626  -0.972  23.776  0.00  0.00    +0.150 HD
ATOM      5  O   LEU A   3       9.270   0.280  21.344  0.00  0.00    -0.274 OA
BRANCH   2   6
ATOM      6  CA  LEU A   3       6.923   0.666  21.887  0.00  0.00    +0.159 C 
BRANCH   6   9
ATOM      7  C   ARG A   2       7.358   3.059  22.417  0.00  0.00    +0.234 C 
ATOM      8  O   ARG A   2       7.939   3.282  21.357  0.00  0.00    -0.274 OA
ATOM      9  N   LEU A   3       6.877   1.825  22.772  0.00  0.00    -0.302 N 
ATOM     10  H   LEU A   3       6.323   1.719  23.616  0.00  0.00    +0.150 HD
BRANCH   7  11
ATOM     11  CA  ARG A   2       7.079   4.172  23.440  0.00  0.00    +0.159 C 
BRANCH  11  13
ATOM     12  C   THR A   1       4.661   4.567  23.800  0.00  0.00    +0.233 C 
ATOM     13  N   ARG A   2       5.807   3.850  24.073  0.00  0.00    -0.303 N 
ATOM     14  H   ARG A   2       5.788   3.055  24.705  0.00  0.00    +0.149 HD
ATOM     15  O   THR A   1       4.673   5.525  23.032  0.00  0.00    -0.274 OA
BRANCH  12  16
ATOM     16  CA  THR A   1       3.404   4.036  24.514  0.00  0.00    +0.166 C 
BRANCH  16  17
ATOM     17  N   THR A   1       3.391   2.555  24.484  0.00  0.00    -0.318 NA
ATOM     18  H1  THR A   1       4.092   2.236  25.158  0.00  0.00    +0.119 HD
ATOM     19  H2  THR A   1       2.490   2.212  24.803  0.00  0.00    +0.119 HD
ENDBRANCH  16  17
BRANCH  16  20
ATOM     20  CB  THR A   1       3.341   4.544  25.970  0.00  0.00    +0.137 C 
ATOM     21  CG2 THR A   1       3.658   3.462  26.997  0.00  0.00    +0.040 C 
BRANCH  20  22
ATOM     22  OG1 THR A   1       4.320   5.587  26.124  0.00  0.00    -0.390 OA
ATOM     23  HG1 THR A   1       5.041   5.223  26.668  0.00  0.00    +0.210 HD
ENDBRANCH  20  22
ENDBRANCH  16  20
ENDBRANCH  12  16
ENDBRANCH  11  13
BRANCH  11  24
ATOM     24  CB  ARG A   2       8.193   4.243  24.494  0.00  0.00    +0.035 C 
BRANCH  24  25
ATOM     25  CG  ARG A   2       9.595   4.091  23.904  0.00  0.00    +0.039 C 
BRANCH  25  26
ATOM     26  CD  ARG A   2      10.304   5.439  23.791  0.00  0.00    +0.196 C 
BRANCH  26  27
ATOM     27  NE  ARG A   2      11.746   5.286  24.031  0.00  0.00    -0.279 N 
ATOM     28  HE  ARG A   2      12.086   5.263  24.987  0.00  0.00    +0.258 HD
ATOM     29  CZ  ARG A   2      12.672   5.180  23.068  0.00  0.00    +0.341 C 
ATOM     30  NH2 ARG A   2      13.962   5.112  23.401  0.00  0.00    -0.292 N 
ATOM     31 HH21 ARG A   2      14.275   5.284  24.359  0.00  0.00    +0.255 HD
ATOM     32 HH22 ARG A   2      14.686   4.979  22.709  0.00  0.00    +0.255 HD
ATOM     33  NH1 ARG A   2      12.337   5.146  21.773  0.00  0.00    -0.292 N 
ATOM     34 HH11 ARG A   2      11.371   5.206  21.480  0.00  0.00    +0.255 HD
ATOM     35 HH12 ARG A   2      13.035   5.075  21.045  0.00  0.00    +0.255 HD
ENDBRANCH  26  27
ENDBRANCH  25  26
ENDBRANCH  24  25
ENDBRANCH  11  24
ENDBRANCH   7  11
ENDBRANCH   6   9
BRANCH   6  36
ATOM     36  CB  LEU A   3       6.715   1.073  20.422  0.00  0.00    +0.034 C 
BRANCH  36  37
ATOM     37  CG  LEU A   3       6.603  -0.108  19.438  0.00  0.00    -0.015 C 
ATOM     38  CD2 LEU A   3       5.855  -1.266  20.103  0.00  0.00    +0.007 C 
ATOM     39  CD1 LEU A   3       5.887   0.285  18.143  0.00  0.00    +0.007 C 
ENDBRANCH  36  37
ENDBRANCH   6  36
ENDBRANCH   2   6
ENDBRANCH   1   3
BRANCH   1  40
ATOM     40  C   GLN A   4       9.264  -2.977  23.846  0.00  0.00    +0.234 C 
ATOM     41  O   GLN A   4      10.108  -3.809  24.180  0.00  0.00    -0.274 OA
ATOM     42  N   SER A   5       7.939  -3.289  23.722  0.00  0.00    -0.301 N 
ATOM     43  H   SER A   5       7.234  -2.585  23.510  0.00  0.00    +0.150 HD
BRANCH  42  44
ATOM     44  CA  SER A   5       7.433  -4.658  23.890  0.00  0.00    +0.184 C 
BRANCH  44  45
ATOM     45  C   SER A   5       6.101  -4.746  23.130  0.00  0.00    +0.236 C 
ATOM     46  N   LEU A   6       4.985  -4.886  23.916  0.00  0.00    -0.302 N 
ATOM     47  H   LEU A   6       5.054  -4.795  24.928  0.00  0.00    +0.150 HD
ATOM     48  O   SER A   5       6.065  -4.732  21.898  0.00  0.00    -0.274 OA
BRANCH  46  49
ATOM     49  CA  LEU A   6       3.618  -4.922  23.392  0.00  0.00    +0.159 C 
BRANCH  49  50
ATOM     50  C   LEU A   6       2.707  -4.467  24.553  0.00  0.00    +0.234 C 
ATOM     51  O   LEU A   6       1.537  -4.134  24.363  0.00  0.00    -0.274 OA
ATOM     52  N   GLU A   7       3.303  -4.423  25.787  0.00  0.00    -0.302 N 
ATOM     53  H   GLU A   7       4.274  -4.707  25.901  0.00  0.00    +0.150 HD
BRANCH  52  54
ATOM     54  CA  GLU A   7       2.626  -3.900  26.972  0.00  0.00    +0.159 C 
BRANCH  54  55
ATOM     55  C   GLU A   7       2.913  -2.386  26.994  0.00  0.00    +0.234 C 
ATOM     56  N   ASN A   8       4.210  -2.027  26.723  0.00  0.00    -0.304 N 
ATOM     57  H   ASN A   8       4.916  -2.736  26.534  0.00  0.00    +0.149 HD
ATOM     58  O   GLU A   7       2.030  -1.554  27.204  0.00  0.00    -0.274 OA
BRANCH  56  59
ATOM     59  CA  ASN A   8       4.660  -0.639  26.718  0.00  0.00    +0.145 C 
BRANCH  59  60
ATOM     60  C   ASN A   8       5.437  -0.422  25.429  0.00  0.00    +0.245 C 
ATOM     61  O   ASN A   8       5.971  -1.332  24.798  0.00  0.00    -0.299 OA
ENDBRANCH  59  60
BRANCH  59  62
ATOM     62  CB  ASN A   8       5.564  -0.305  27.896  0.00  0.00    +0.125 C 
BRANCH  62  63
ATOM     63  CG  ASN A   8       4.882   0.541  28.942  0.00  0.00    +0.213 C 
ATOM     64  ND2 ASN A   8       3.520   0.508  28.951  0.00  0.00    -0.329 N 
ATOM     65 HD21 ASN A   8       3.005  -0.290  28.607  0.00  0.00    +0.145 HD
ATOM     66 HD22 ASN A   8       3.086   1.006  29.720  0.00  0.00    +0.145 HD
ATOM     67  OD1 ASN A   8       5.498   1.252  29.728  0.00  0.00    -0.276 OA
ENDBRANCH  62  63
ENDBRANCH  59  62
ENDBRANCH  56  59
ENDBRANCH  54  55
BRANCH  54  68
ATOM     68  CB  GLU A   7       3.140  -4.587  28.246  0.00  0.00    +0.038 C 
BRANCH  68  69
ATOM     69  CG  GLU A   7       3.560  -6.040  28.032  0.00  0.00    +0.059 C 
BRANCH  69  70
ATOM     70  CD  GLU A   7       5.004  -6.291  28.398  0.00  0.00    +0.023 C 
ATOM     71  OE1 GLU A   7       5.792  -5.398  28.668  0.00  0.00    -0.851 OA
BRANCH  70  72
ATOM     72  OE2 GLU A   7       5.372  -7.588  28.354  0.00  0.00    -0.526 OA
ATOM     73  HE2 GLU A   7       6.316  -7.757  28.523  0.00  0.00    +0.290 HD
ENDBRANCH  70  72
ENDBRANCH  69  70
ENDBRANCH  68  69
ENDBRANCH  54  68
ENDBRANCH  52  54
ENDBRANCH  49  50
BRANCH  49  74
ATOM     74  CB  LEU A   6       3.198  -6.337  22.954  0.00  0.00    +0.034 C 
BRANCH  74  75
ATOM     75  CG  LEU A   6       2.385  -7.147  23.982  0.00  0.00    -0.015 C 
ATOM     76  CD2 LEU A   6       3.283  -7.922  24.948  0.00  0.00    +0.007 C 
ATOM     77  CD1 LEU A   6       1.456  -8.125  23.256  0.00  0.00    +0.007 C 
ENDBRANCH  74  75
ENDBRANCH  49  74
ENDBRANCH  46  49
ENDBRANCH  44  45
BRANCH  44  78
ATOM     78  CB  SER A   5       7.256  -5.059  25.360  0.00  0.00    +0.187 C 
BRANCH  78  79
ATOM     79  OG  SER A   5       6.549  -4.061  26.097  0.00  0.00    -0.393 OA
ATOM     80  H   SER A   5       5.921  -3.646  25.480  0.00  0.00    +0.209 HD
ENDBRANCH  78  79
ENDBRANCH  44  78
ENDBRANCH  42  44
ENDBRANCH   1  40
BRANCH   1  81
ATOM     81  CB  GLN A   4      10.314  -0.829  24.683  0.00  0.00    +0.041 C 
BRANCH  81  82
ATOM     82  CG  GLN A   4       9.341  -0.020  25.535  0.00  0.00    +0.098 C 
BRANCH  82  83
ATOM     83  CD  GLN A   4       8.947  -0.841  26.748  0.00  0.00    +0.211 C 
ATOM     84  OE1 GLN A   4       8.528  -1.998  26.683  0.00  0.00    -0.276 OA
ATOM     85  NE2 GLN A   4       9.180  -0.231  27.944  0.00  0.00    -0.329 N 
ATOM     86 HE21 GLN A   4       9.503   0.727  28.022  0.00  0.00    +0.145 HD
ATOM     87 HE22 GLN A   4       8.939  -0.708  28.802  0.00  0.00    +0.145 HD
ENDBRANCH  82  83
ENDBRANCH  81  82
ENDBRANCH   1  81
TORSDOF 37
ENDMDL
MODEL 20
REMARK VINA RESULT:      -4.7      1.989      6.621
REMARK  Name = TRLQSLEN-mmff94.pdb
REMARK  42 active torsions:
REMARK  status: ('A' for Active; 'I' for Inactive)
REMARK    1  A    between atoms: _1  and  _2
REMARK    2  A    between atoms: _2  and  _3
REMARK    3  A    between atoms: _2  and  _5
REMARK    4  A    between atoms: _5  and  _6
REMARK    5  A    between atoms: _5  and  _7
REMARK    6  A    between atoms: _15  and  _16
REMARK    7  A    between atoms: _16  and  _17
REMARK    8  A    between atoms: _16  and  _19
REMARK    9  A    between atoms: _19  and  _20
REMARK   10  A    between atoms: _20  and  _21
REMARK   11  A    between atoms: _21  and  _22
REMARK   12  A    between atoms: _39  and  _40
REMARK   13  A    between atoms: _40  and  _41
REMARK   14  A    between atoms: _40  and  _43
REMARK   15  A    between atoms: _43  and  _44
REMARK   16  A    between atoms: _44  and  _45
REMARK   17  A    between atoms: _44  and  _46
REMARK   18  A    between atoms: _58  and  _59
REMARK   19  A    between atoms: _59  and  _60
REMARK   20  A    between atoms: _59  and  _62
REMARK   21  A    between atoms: _62  and  _63
REMARK   22  A    between atoms: _63  and  _64
REMARK   23  A    between atoms: _75  and  _76
REMARK   24  A    between atoms: _76  and  _77
REMARK   25  A    between atoms: _76  and  _79
REMARK   26  A    between atoms: _79  and  _80
REMARK   27  A    between atoms: _86  and  _87
REMARK   28  A    between atoms: _87  and  _88
REMARK   29  A    between atoms: _87  and  _90
REMARK   30  A    between atoms: _90  and  _91
REMARK   31  A    between atoms: _91  and  _92
REMARK   32  A    between atoms: _91  and  _93
REMARK   33  A    between atoms: _105  and  _106
REMARK   34  A    between atoms: _106  and  _107
REMARK   35  A    between atoms: _106  and  _109
REMARK   36  A    between atoms: _109  and  _110
REMARK   37  A    between atoms: _110  and  _111
REMARK   38  A    between atoms: _111  and  _112
REMARK   39  A    between atoms: _120  and  _121
REMARK   40  A    between atoms: _121  and  _122
REMARK   41  A    between atoms: _121  and  _124
REMARK   42  A    between atoms: _124  and  _125
REMARK                            x       y       z     vdW  Elec       q    Type
REMARK                         _______ _______ _______ _____ _____    ______ ____
ROOT
ATOM      1  CA  GLN A   4       7.506  -3.341  22.592  0.00  0.00    +0.159 C 
ENDROOT
BRANCH   1   3
ATOM      2  C   LEU A   3       7.634  -1.017  21.713  0.00  0.00    +0.234 C 
ATOM      3  N   GLN A   4       6.953  -2.200  21.863  0.00  0.00    -0.302 N 
ATOM      4  H   GLN A   4       5.983  -2.281  21.562  0.00  0.00    +0.150 HD
ATOM      5  O   LEU A   3       8.768  -0.842  22.165  0.00  0.00    -0.274 OA
BRANCH   2   6
ATOM      6  CA  LEU A   3       6.866   0.082  20.947  0.00  0.00    +0.159 C 
BRANCH   6   9
ATOM      7  C   ARG A   2       5.891   2.265  21.640  0.00  0.00    +0.234 C 
ATOM      8  O   ARG A   2       5.199   2.379  20.630  0.00  0.00    -0.274 OA
ATOM      9  N   LEU A   3       6.751   1.219  21.854  0.00  0.00    -0.302 N 
ATOM     10  H   LEU A   3       7.226   1.127  22.747  0.00  0.00    +0.150 HD
BRANCH   7  11
ATOM     11  CA  ARG A   2       5.824   3.283  22.790  0.00  0.00    +0.159 C 
BRANCH  11  13
ATOM     12  C   THR A   1       3.850   4.207  23.966  0.00  0.00    +0.233 C 
ATOM     13  N   ARG A   2       4.511   3.135  23.405  0.00  0.00    -0.303 N 
ATOM     14  H   ARG A   2       4.084   2.213  23.379  0.00  0.00    +0.149 HD
ATOM     15  O   THR A   1       4.354   5.326  23.995  0.00  0.00    -0.274 OA
BRANCH  12  16
ATOM     16  CA  THR A   1       2.448   3.867  24.505  0.00  0.00    +0.166 C 
BRANCH  16  17
ATOM     17  N   THR A   1       1.833   2.800  23.682  0.00  0.00    -0.318 NA
ATOM     18  H1  THR A   1       1.305   3.263  22.938  0.00  0.00    +0.119 HD
ATOM     19  H2  THR A   1       2.559   2.247  23.234  0.00  0.00    +0.119 HD
ENDBRANCH  16  17
BRANCH  16  20
ATOM     20  CB  THR A   1       2.517   3.431  25.984  0.00  0.00    +0.137 C 
ATOM     21  CG2 THR A   1       1.865   2.077  26.242  0.00  0.00    +0.040 C 
BRANCH  20  22
ATOM     22  OG1 THR A   1       3.903   3.322  26.355  0.00  0.00    -0.390 OA
ATOM     23  HG1 THR A   1       4.089   4.046  26.978  0.00  0.00    +0.210 HD
ENDBRANCH  20  22
ENDBRANCH  16  20
ENDBRANCH  12  16
ENDBRANCH  11  13
BRANCH  11  24
ATOM     24  CB  ARG A   2       6.926   3.018  23.824  0.00  0.00    +0.035 C 
BRANCH  24  25
ATOM     25  CG  ARG A   2       7.753   4.260  24.160  0.00  0.00    +0.039 C 
BRANCH  25  26
ATOM     26  CD  ARG A   2       9.215   4.083  23.762  0.00  0.00    +0.196 C 
BRANCH  26  27
ATOM     27  NE  ARG A   2       9.693   2.743  24.130  0.00  0.00    -0.279 N 
ATOM     28  HE  ARG A   2       9.680   2.466  25.107  0.00  0.00    +0.258 HD
ATOM     29  CZ  ARG A   2      10.162   1.836  23.262  0.00  0.00    +0.341 C 
ATOM     30  NH2 ARG A   2      10.631   0.672  23.716  0.00  0.00    -0.292 N 
ATOM     31 HH21 ARG A   2      10.777   0.509  24.715  0.00  0.00    +0.255 HD
ATOM     32 HH22 ARG A   2      10.945  -0.057  23.092  0.00  0.00    +0.255 HD
ATOM     33  NH1 ARG A   2      10.179   2.068  21.944  0.00  0.00    -0.292 N 
ATOM     34 HH11 ARG A   2       9.842   2.942  21.562  0.00  0.00    +0.255 HD
ATOM     35 HH12 ARG A   2      10.541   1.389  21.290  0.00  0.00    +0.255 HD
ENDBRANCH  26  27
ENDBRANCH  25  26
ENDBRANCH  24  25
ENDBRANCH  11  24
ENDBRANCH   7  11
ENDBRANCH   6   9
BRANCH   6  36
ATOM     36  CB  LEU A   3       7.614   0.465  19.663  0.00  0.00    +0.034 C 
BRANCH  36  37
ATOM     37  CG  LEU A   3       6.879   0.100  18.358  0.00  0.00    -0.015 C 
ATOM     38  CD2 LEU A   3       5.754  -0.893  18.660  0.00  0.00    +0.007 C 
ATOM     39  CD1 LEU A   3       6.298   1.331  17.659  0.00  0.00    +0.007 C 
ENDBRANCH  36  37
ENDBRANCH   6  36
ENDBRANCH   2   6
ENDBRANCH   1   3
BRANCH   1  40
ATOM     40  C   GLN A   4       6.432  -4.444  22.534  0.00  0.00    +0.234 C 
ATOM     41  O   GLN A   4       6.276  -5.142  21.533  0.00  0.00    -0.274 OA
ATOM     42  N   SER A   5       5.636  -4.563  23.640  0.00  0.00    -0.301 N 
ATOM     43  H   SER A   5       5.808  -4.030  24.491  0.00  0.00    +0.150 HD
BRANCH  42  44
ATOM     44  CA  SER A   5       4.481  -5.469  23.685  0.00  0.00    +0.184 C 
BRANCH  44  45
ATOM     45  C   SER A   5       3.471  -4.868  24.675  0.00  0.00    +0.236 C 
ATOM     46  N   LEU A   6       4.010  -4.372  25.835  0.00  0.00    -0.302 N 
ATOM     47  H   LEU A   6       5.020  -4.297  25.941  0.00  0.00    +0.150 HD
ATOM     48  O   SER A   5       2.261  -4.880  24.441  0.00  0.00    -0.274 OA
BRANCH  46  49
ATOM     49  CA  LEU A   6       3.229  -3.701  26.876  0.00  0.00    +0.159 C 
BRANCH  49  50
ATOM     50  C   LEU A   6       3.723  -2.238  26.901  0.00  0.00    +0.234 C 
ATOM     51  O   LEU A   6       3.109  -1.339  26.326  0.00  0.00    -0.274 OA
ATOM     52  N   GLU A   7       4.904  -2.027  27.565  0.00  0.00    -0.302 N 
ATOM     53  H   GLU A   7       5.381  -2.798  28.026  0.00  0.00    +0.150 HD
BRANCH  52  54
ATOM     54  CA  GLU A   7       5.579  -0.730  27.582  0.00  0.00    +0.159 C 
BRANCH  54  55
ATOM     55  C   GLU A   7       5.004   0.035  28.789  0.00  0.00    +0.234 C 
ATOM     56  N   ASN A   8       5.074   1.404  28.707  0.00  0.00    -0.304 N 
ATOM     57  H   ASN A   8       5.493   1.855  27.895  0.00  0.00    +0.149 HD
ATOM     58  O   GLU A   7       4.485  -0.541  29.745  0.00  0.00    -0.274 OA
BRANCH  56  59
ATOM     59  CA  ASN A   8       4.593   2.283  29.767  0.00  0.00    +0.145 C 
BRANCH  59  60
ATOM     60  C   ASN A   8       3.094   2.447  29.570  0.00  0.00    +0.245 C 
ATOM     61  O   ASN A   8       2.551   3.531  29.367  0.00  0.00    -0.299 OA
ENDBRANCH  59  60
BRANCH  59  62
ATOM     62  CB  ASN A   8       5.243   3.660  29.736  0.00  0.00    +0.125 C 
BRANCH  62  63
ATOM     63  CG  ASN A   8       6.529   3.688  28.950  0.00  0.00    +0.213 C 
ATOM     64  ND2 ASN A   8       6.493   4.346  27.757  0.00  0.00    -0.329 N 
ATOM     65 HD21 ASN A   8       5.838   5.095  27.582  0.00  0.00    +0.145 HD
ATOM     66 HD22 ASN A   8       7.390   4.435  27.292  0.00  0.00    +0.145 HD
ATOM     67  OD1 ASN A   8       7.552   3.129  29.328  0.00  0.00    -0.276 OA
ENDBRANCH  62  63
ENDBRANCH  59  62
ENDBRANCH  56  59
ENDBRANCH  54  55
BRANCH  54  68
ATOM     68  CB  GLU A   7       5.339   0.029  26.268  0.00  0.00    +0.038 C 
BRANCH  68  69
ATOM     69  CG  GLU A   7       6.557   0.062  25.347  0.00  0.00    +0.059 C 
BRANCH  69  70
ATOM     70  CD  GLU A   7       7.831   0.416  26.077  0.00  0.00    +0.023 C 
ATOM     71  OE1 GLU A   7       8.795  -0.332  26.145  0.00  0.00    -0.851 OA
BRANCH  70  72
ATOM     72  OE2 GLU A   7       7.804   1.614  26.697  0.00  0.00    -0.526 OA
ATOM     73  HE2 GLU A   7       7.778   2.387  26.105  0.00  0.00    +0.290 HD
ENDBRANCH  70  72
ENDBRANCH  69  70
ENDBRANCH  68  69
ENDBRANCH  54  68
ENDBRANCH  52  54
ENDBRANCH  49  50
BRANCH  49  74
ATOM     74  CB  LEU A   6       3.450  -4.325  28.265  0.00  0.00    +0.034 C 
BRANCH  74  75
ATOM     75  CG  LEU A   6       4.276  -5.625  28.296  0.00  0.00    -0.015 C 
ATOM     76  CD2 LEU A   6       3.534  -6.765  28.997  0.00  0.00    +0.007 C 
ATOM     77  CD1 LEU A   6       5.611  -5.376  29.005  0.00  0.00    +0.007 C 
ENDBRANCH  74  75
ENDBRANCH  49  74
ENDBRANCH  46  49
ENDBRANCH  44  45
BRANCH  44  78
ATOM     78  CB  SER A   5       4.854  -6.903  24.081  0.00  0.00    +0.187 C 
BRANCH  78  79
ATOM     79  OG  SER A   5       3.905  -7.461  24.990  0.00  0.00    -0.393 OA
ATOM     80  H   SER A   5       3.137  -7.740  24.463  0.00  0.00    +0.209 HD
ENDBRANCH  78  79
ENDBRANCH  44  78
ENDBRANCH  42  44
ENDBRANCH   1  40
BRANCH   1  81
ATOM     81  CB  GLN A   4       7.808  -2.946  24.044  0.00  0.00    +0.041 C 
BRANCH  81  82
ATOM     82  CG  GLN A   4       9.153  -3.456  24.551  0.00  0.00    +0.098 C 
BRANCH  82  83
ATOM     83  CD  GLN A   4       8.934  -4.742  25.325  0.00  0.00    +0.211 C 
ATOM     84  OE1 GLN A   4       7.823  -5.160  25.655  0.00  0.00    -0.276 OA
ATOM     85  NE2 GLN A   4      10.067  -5.466  25.553  0.00  0.00    -0.329 N 
ATOM     86 HE21 GLN A   4      10.993  -5.133  25.311  0.00  0.00    +0.145 HD
ATOM     87 HE22 GLN A   4      10.008  -6.333  26.068  0.00  0.00    +0.145 HD
ENDBRANCH  82  83
ENDBRANCH  81  82
ENDBRANCH   1  81
TORSDOF 37
ENDMDL
