MODEL 1
REMARK VINA RESULT:      -6.5      0.000      0.000
REMARK  Name = TVLQAVGA-mmff94.pdb
REMARK  34 active torsions:
REMARK  status: ('A' for Active; 'I' for Inactive)
REMARK    1  A    between atoms: _1  and  _2
REMARK    2  A    between atoms: _2  and  _3
REMARK    3  A    between atoms: _2  and  _5
REMARK    4  A    between atoms: _5  and  _6
REMARK    5  A    between atoms: _5  and  _7
REMARK    6  A    between atoms: _15  and  _16
REMARK    7  A    between atoms: _16  and  _17
REMARK    8  A    between atoms: _16  and  _19
REMARK    9  A    between atoms: _19  and  _20
REMARK   10  A    between atoms: _19  and  _21
REMARK   11  A    between atoms: _31  and  _32
REMARK   12  A    between atoms: _32  and  _33
REMARK   13  A    between atoms: _32  and  _35
REMARK   14  A    between atoms: _35  and  _36
REMARK   15  A    between atoms: _36  and  _37
REMARK   16  A    between atoms: _36  and  _38
REMARK   17  A    between atoms: _50  and  _51
REMARK   18  A    between atoms: _51  and  _52
REMARK   19  A    between atoms: _51  and  _54
REMARK   20  A    between atoms: _54  and  _55
REMARK   21  A    between atoms: _55  and  _56
REMARK   22  A    between atoms: _67  and  _68
REMARK   23  A    between atoms: _68  and  _69
REMARK   24  A    between atoms: _68  and  _71
REMARK   25  A    between atoms: _77  and  _78
REMARK   26  A    between atoms: _78  and  _79
REMARK   27  A    between atoms: _78  and  _81
REMARK   28  A    between atoms: _81  and  _82
REMARK   29  A    between atoms: _81  and  _83
REMARK   30  A    between atoms: _93  and  _94
REMARK   31  A    between atoms: _94  and  _95
REMARK   32  A    between atoms: _100  and  _101
REMARK   33  A    between atoms: _101  and  _102
REMARK   34  A    between atoms: _101  and  _104
REMARK                            x       y       z     vdW  Elec       q    Type
REMARK                         _______ _______ _______ _____ _____    ______ ____
ROOT
ATOM      1  CA  GLN A   4       4.020  -4.001  23.780  0.00  0.00    +0.159 C 
ENDROOT
BRANCH   1   4
ATOM      2  C   LEU A   3       6.245  -3.315  22.898  0.00  0.00    +0.234 C 
ATOM      3  O   LEU A   3       5.825  -3.190  21.748  0.00  0.00    -0.274 OA
ATOM      4  N   GLN A   4       5.439  -3.689  23.946  0.00  0.00    -0.302 N 
ATOM      5  H   GLN A   4       5.829  -3.829  24.875  0.00  0.00    +0.150 HD
BRANCH   2   6
ATOM      6  CA  LEU A   3       7.713  -3.027  23.273  0.00  0.00    +0.159 C 
BRANCH   6   9
ATOM      7  C   VAL A   2       9.114  -1.260  22.218  0.00  0.00    +0.234 C 
ATOM      8  O   VAL A   2      10.044  -2.028  21.973  0.00  0.00    -0.274 OA
ATOM      9  N   LEU A   3       7.978  -1.645  22.884  0.00  0.00    -0.302 N 
ATOM     10  H   LEU A   3       7.190  -1.006  22.951  0.00  0.00    +0.150 HD
BRANCH   7  11
ATOM     11  CA  VAL A   2       9.149   0.219  21.782  0.00  0.00    +0.161 C 
BRANCH  11  13
ATOM     12  C   THR A   1       7.383   0.239  20.028  0.00  0.00    +0.233 C 
ATOM     13  N   VAL A   2       7.790   0.496  21.313  0.00  0.00    -0.302 N 
ATOM     14  H   VAL A   2       7.104   0.696  22.037  0.00  0.00    +0.150 HD
ATOM     15  O   THR A   1       8.149  -0.124  19.138  0.00  0.00    -0.274 OA
BRANCH  12  16
ATOM     16  CA  THR A   1       5.887   0.476  19.771  0.00  0.00    +0.166 C 
BRANCH  16  17
ATOM     17  N   THR A   1       5.521   1.846  20.237  0.00  0.00    -0.318 NA
ATOM     18  H1  THR A   1       4.511   1.863  20.397  0.00  0.00    +0.119 HD
ATOM     19  H2  THR A   1       5.920   1.955  21.176  0.00  0.00    +0.119 HD
ENDBRANCH  16  17
BRANCH  16  20
ATOM     20  CB  THR A   1       5.580   0.355  18.266  0.00  0.00    +0.137 C 
ATOM     21  CG2 THR A   1       6.322   1.384  17.425  0.00  0.00    +0.040 C 
BRANCH  20  22
ATOM     22  OG1 THR A   1       5.977  -0.950  17.819  0.00  0.00    -0.390 OA
ATOM     23  HG1 THR A   1       6.956  -0.912  17.789  0.00  0.00    +0.210 HD
ENDBRANCH  20  22
ENDBRANCH  16  20
ENDBRANCH  12  16
ENDBRANCH  11  13
BRANCH  11  24
ATOM     24  CB  VAL A   2       9.543   1.144  22.955  0.00  0.00    +0.012 C 
ATOM     25  CG2 VAL A   2      10.291   2.390  22.462  0.00  0.00    +0.009 C 
ATOM     26  CG1 VAL A   2      10.412   0.423  23.991  0.00  0.00    +0.009 C 
ENDBRANCH  11  24
ENDBRANCH   7  11
ENDBRANCH   6   9
BRANCH   6  27
ATOM     27  CB  LEU A   3       7.910  -3.243  24.782  0.00  0.00    +0.034 C 
BRANCH  27  28
ATOM     28  CG  LEU A   3       8.232  -4.691  25.201  0.00  0.00    -0.015 C 
ATOM     29  CD2 LEU A   3       9.750  -4.892  25.240  0.00  0.00    +0.007 C 
ATOM     30  CD1 LEU A   3       7.638  -5.044  26.567  0.00  0.00    +0.007 C 
ENDBRANCH  27  28
ENDBRANCH   6  27
ENDBRANCH   2   6
ENDBRANCH   1   4
BRANCH   1  31
ATOM     31  C   GLN A   4       3.317  -3.515  25.061  0.00  0.00    +0.234 C 
ATOM     32  O   GLN A   4       2.116  -3.249  25.080  0.00  0.00    -0.274 OA
ATOM     33  N   ALA A   5       4.136  -3.342  26.147  0.00  0.00    -0.303 N 
ATOM     34  H   ALA A   5       5.116  -3.617  26.117  0.00  0.00    +0.149 HD
BRANCH  33  35
ATOM     35  CA  ALA A   5       3.675  -2.751  27.397  0.00  0.00    +0.156 C 
ATOM     36  CB  ALA A   5       4.417  -3.312  28.600  0.00  0.00    +0.038 C 
BRANCH  35  37
ATOM     37  C   ALA A   5       3.901  -1.234  27.292  0.00  0.00    +0.234 C 
ATOM     38  N   VAL A   6       5.173  -0.863  26.942  0.00  0.00    -0.302 N 
ATOM     39  H   VAL A   6       5.869  -1.566  26.706  0.00  0.00    +0.150 HD
ATOM     40  O   ALA A   5       2.996  -0.428  27.504  0.00  0.00    -0.274 OA
BRANCH  38  41
ATOM     41  CA  VAL A   6       5.597   0.533  26.800  0.00  0.00    +0.161 C 
BRANCH  41  42
ATOM     42  C   VAL A   6       5.473   0.827  25.287  0.00  0.00    +0.234 C 
ATOM     43  O   VAL A   6       5.648  -0.048  24.438  0.00  0.00    -0.274 OA
ATOM     44  N   GLY A   7       5.198   2.129  24.962  0.00  0.00    -0.305 N 
ATOM     45  H   GLY A   7       5.062   2.830  25.687  0.00  0.00    +0.149 HD
BRANCH  44  46
ATOM     46  CA  GLY A   7       5.189   2.605  23.593  0.00  0.00    +0.200 C 
BRANCH  46  47
ATOM     47  C   GLY A   7       3.762   2.998  23.218  0.00  0.00    +0.231 C 
ATOM     48  N   ALA A   8       3.606   3.416  21.919  0.00  0.00    -0.305 N 
ATOM     49  H   ALA A   8       4.389   3.387  21.269  0.00  0.00    +0.149 HD
ATOM     50  O   GLY A   7       2.827   2.925  24.014  0.00  0.00    -0.274 OA
BRANCH  48  51
ATOM     51  CA  ALA A   8       2.313   3.805  21.375  0.00  0.00    +0.133 C 
ATOM     52  CB  ALA A   8       2.238   5.300  21.106  0.00  0.00    +0.035 C 
BRANCH  51  53
ATOM     53  C   ALA A   8       2.093   3.045  20.075  0.00  0.00    +0.245 C 
ATOM     54  O   ALA A   8       2.685   2.005  19.786  0.00  0.00    -0.299 OA
ENDBRANCH  51  53
ENDBRANCH  48  51
ENDBRANCH  46  47
ENDBRANCH  44  46
ENDBRANCH  41  42
BRANCH  41  55
ATOM     55  CB  VAL A   6       7.051   0.746  27.301  0.00  0.00    +0.012 C 
ATOM     56  CG2 VAL A   6       7.925  -0.496  27.081  0.00  0.00    +0.009 C 
ATOM     57  CG1 VAL A   6       7.115   1.119  28.788  0.00  0.00    +0.009 C 
ENDBRANCH  41  55
ENDBRANCH  38  41
ENDBRANCH  35  37
ENDBRANCH  33  35
ENDBRANCH   1  31
BRANCH   1  58
ATOM     58  CB  GLN A   4       3.822  -5.512  23.580  0.00  0.00    +0.041 C 
BRANCH  58  59
ATOM     59  CG  GLN A   4       4.758  -6.375  24.426  0.00  0.00    +0.098 C 
BRANCH  59  60
ATOM     60  CD  GLN A   4       4.116  -6.890  25.697  0.00  0.00    +0.211 C 
ATOM     61  OE1 GLN A   4       4.401  -6.454  26.807  0.00  0.00    -0.276 OA
ATOM     62  NE2 GLN A   4       3.250  -7.932  25.565  0.00  0.00    -0.329 N 
ATOM     63 HE21 GLN A   4       2.933  -8.297  24.679  0.00  0.00    +0.145 HD
ATOM     64 HE22 GLN A   4       2.810  -8.274  26.410  0.00  0.00    +0.145 HD
ENDBRANCH  59  60
ENDBRANCH  58  59
ENDBRANCH   1  58
TORSDOF 25
ENDMDL
MODEL 2
REMARK VINA RESULT:      -6.5      2.344      6.902
REMARK  Name = TVLQAVGA-mmff94.pdb
REMARK  34 active torsions:
REMARK  status: ('A' for Active; 'I' for Inactive)
REMARK    1  A    between atoms: _1  and  _2
REMARK    2  A    between atoms: _2  and  _3
REMARK    3  A    between atoms: _2  and  _5
REMARK    4  A    between atoms: _5  and  _6
REMARK    5  A    between atoms: _5  and  _7
REMARK    6  A    between atoms: _15  and  _16
REMARK    7  A    between atoms: _16  and  _17
REMARK    8  A    between atoms: _16  and  _19
REMARK    9  A    between atoms: _19  and  _20
REMARK   10  A    between atoms: _19  and  _21
REMARK   11  A    between atoms: _31  and  _32
REMARK   12  A    between atoms: _32  and  _33
REMARK   13  A    between atoms: _32  and  _35
REMARK   14  A    between atoms: _35  and  _36
REMARK   15  A    between atoms: _36  and  _37
REMARK   16  A    between atoms: _36  and  _38
REMARK   17  A    between atoms: _50  and  _51
REMARK   18  A    between atoms: _51  and  _52
REMARK   19  A    between atoms: _51  and  _54
REMARK   20  A    between atoms: _54  and  _55
REMARK   21  A    between atoms: _55  and  _56
REMARK   22  A    between atoms: _67  and  _68
REMARK   23  A    between atoms: _68  and  _69
REMARK   24  A    between atoms: _68  and  _71
REMARK   25  A    between atoms: _77  and  _78
REMARK   26  A    between atoms: _78  and  _79
REMARK   27  A    between atoms: _78  and  _81
REMARK   28  A    between atoms: _81  and  _82
REMARK   29  A    between atoms: _81  and  _83
REMARK   30  A    between atoms: _93  and  _94
REMARK   31  A    between atoms: _94  and  _95
REMARK   32  A    between atoms: _100  and  _101
REMARK   33  A    between atoms: _101  and  _102
REMARK   34  A    between atoms: _101  and  _104
REMARK                            x       y       z     vdW  Elec       q    Type
REMARK                         _______ _______ _______ _____ _____    ______ ____
ROOT
ATOM      1  CA  GLN A   4       9.248  -2.685  24.412  0.00  0.00    +0.159 C 
ENDROOT
BRANCH   1   4
ATOM      2  C   LEU A   3       8.828  -0.377  25.243  0.00  0.00    +0.234 C 
ATOM      3  O   LEU A   3       9.915   0.038  24.838  0.00  0.00    -0.274 OA
ATOM      4  N   GLN A   4       8.419  -1.676  25.067  0.00  0.00    -0.302 N 
ATOM      5  H   GLN A   4       7.535  -1.997  25.457  0.00  0.00    +0.150 HD
BRANCH   2   6
ATOM      6  CA  LEU A   3       7.812   0.539  25.957  0.00  0.00    +0.159 C 
BRANCH   6   9
ATOM      7  C   VAL A   2       7.360   2.852  25.154  0.00  0.00    +0.234 C 
ATOM      8  O   VAL A   2       7.690   3.374  26.219  0.00  0.00    -0.274 OA
ATOM      9  N   LEU A   3       7.342   1.494  24.958  0.00  0.00    -0.302 N 
ATOM     10  H   LEU A   3       7.182   1.120  24.026  0.00  0.00    +0.150 HD
BRANCH   7  11
ATOM     11  CA  VAL A   2       6.943   3.697  23.933  0.00  0.00    +0.161 C 
BRANCH  11  13
ATOM     12  C   THR A   1       8.560   2.496  22.471  0.00  0.00    +0.233 C 
ATOM     13  N   VAL A   2       7.273   2.861  22.777  0.00  0.00    -0.302 N 
ATOM     14  H   VAL A   2       6.488   2.393  22.330  0.00  0.00    +0.150 HD
ATOM     15  O   THR A   1       9.544   2.937  23.060  0.00  0.00    -0.274 OA
BRANCH  12  16
ATOM     16  CA  THR A   1       8.683   1.510  21.299  0.00  0.00    +0.166 C 
BRANCH  16  17
ATOM     17  N   THR A   1       9.614   0.408  21.680  0.00  0.00    -0.318 NA
ATOM     18  H1  THR A   1       9.162  -0.479  21.445  0.00  0.00    +0.119 HD
ATOM     19  H2  THR A   1      10.410   0.456  21.035  0.00  0.00    +0.119 HD
ENDBRANCH  16  17
BRANCH  16  20
ATOM     20  CB  THR A   1       7.303   0.912  20.960  0.00  0.00    +0.137 C 
ATOM     21  CG2 THR A   1       7.325   0.041  19.712  0.00  0.00    +0.040 C 
BRANCH  20  22
ATOM     22  OG1 THR A   1       6.872   0.099  22.060  0.00  0.00    -0.390 OA
ATOM     23  HG1 THR A   1       6.148  -0.450  21.691  0.00  0.00    +0.210 HD
ENDBRANCH  20  22
ENDBRANCH  16  20
ENDBRANCH  12  16
ENDBRANCH  11  13
BRANCH  11  24
ATOM     24  CB  VAL A   2       5.437   4.039  23.972  0.00  0.00    +0.012 C 
ATOM     25  CG2 VAL A   2       4.636   3.165  22.999  0.00  0.00    +0.009 C 
ATOM     26  CG1 VAL A   2       5.172   5.513  23.647  0.00  0.00    +0.009 C 
ENDBRANCH  11  24
ENDBRANCH   7  11
ENDBRANCH   6   9
BRANCH   6  27
ATOM     27  CB  LEU A   3       6.662  -0.311  26.520  0.00  0.00    +0.034 C 
BRANCH  27  28
ATOM     28  CG  LEU A   3       5.975   0.264  27.773  0.00  0.00    -0.015 C 
ATOM     29  CD2 LEU A   3       7.009   0.983  28.646  0.00  0.00    +0.007 C 
ATOM     30  CD1 LEU A   3       4.847   1.236  27.420  0.00  0.00    +0.007 C 
ENDBRANCH  27  28
ENDBRANCH   6  27
ENDBRANCH   2   6
ENDBRANCH   1   4
BRANCH   1  31
ATOM     31  C   GLN A   4       8.518  -3.069  23.111  0.00  0.00    +0.234 C 
ATOM     32  O   GLN A   4       8.534  -2.340  22.119  0.00  0.00    -0.274 OA
ATOM     33  N   ALA A   5       7.804  -4.238  23.165  0.00  0.00    -0.303 N 
ATOM     34  H   ALA A   5       7.849  -4.846  23.980  0.00  0.00    +0.149 HD
BRANCH  33  35
ATOM     35  CA  ALA A   5       6.936  -4.683  22.082  0.00  0.00    +0.156 C 
ATOM     36  CB  ALA A   5       6.928  -6.198  21.944  0.00  0.00    +0.038 C 
BRANCH  35  37
ATOM     37  C   ALA A   5       5.521  -4.170  22.396  0.00  0.00    +0.234 C 
ATOM     38  N   VAL A   6       4.767  -5.003  23.182  0.00  0.00    -0.302 N 
ATOM     39  H   VAL A   6       5.170  -5.852  23.570  0.00  0.00    +0.150 HD
ATOM     40  O   ALA A   5       5.115  -3.090  21.970  0.00  0.00    -0.274 OA
BRANCH  38  41
ATOM     41  CA  VAL A   6       3.390  -4.703  23.585  0.00  0.00    +0.161 C 
BRANCH  41  42
ATOM     42  C   VAL A   6       3.535  -3.784  24.820  0.00  0.00    +0.234 C 
ATOM     43  O   VAL A   6       2.777  -2.834  25.017  0.00  0.00    -0.274 OA
ATOM     44  N   GLY A   7       4.585  -4.077  25.650  0.00  0.00    -0.305 N 
ATOM     45  H   GLY A   7       5.197  -4.867  25.459  0.00  0.00    +0.149 HD
BRANCH  44  46
ATOM     46  CA  GLY A   7       4.950  -3.233  26.771  0.00  0.00    +0.200 C 
BRANCH  46  47
ATOM     47  C   GLY A   7       4.460  -3.889  28.061  0.00  0.00    +0.231 C 
ATOM     48  N   ALA A   8       4.156  -5.223  27.944  0.00  0.00    -0.305 N 
ATOM     49  H   ALA A   8       4.321  -5.716  27.070  0.00  0.00    +0.149 HD
ATOM     50  O   GLY A   7       4.367  -3.271  29.121  0.00  0.00    -0.274 OA
BRANCH  48  51
ATOM     51  CA  ALA A   8       3.700  -6.020  29.073  0.00  0.00    +0.133 C 
ATOM     52  CB  ALA A   8       2.548  -6.937  28.691  0.00  0.00    +0.035 C 
BRANCH  51  53
ATOM     53  C   ALA A   8       4.869  -6.858  29.571  0.00  0.00    +0.245 C 
ATOM     54  O   ALA A   8       5.592  -7.524  28.831  0.00  0.00    -0.299 OA
ENDBRANCH  51  53
ENDBRANCH  48  51
ENDBRANCH  46  47
ENDBRANCH  44  46
ENDBRANCH  41  42
BRANCH  41  55
ATOM     55  CB  VAL A   6       2.599  -5.994  23.930  0.00  0.00    +0.012 C 
ATOM     56  CG2 VAL A   6       3.524  -7.140  24.365  0.00  0.00    +0.009 C 
ATOM     57  CG1 VAL A   6       1.739  -6.490  22.761  0.00  0.00    +0.009 C 
ENDBRANCH  41  55
ENDBRANCH  38  41
ENDBRANCH  35  37
ENDBRANCH  33  35
ENDBRANCH   1  31
BRANCH   1  58
ATOM     58  CB  GLN A   4       9.429  -3.908  25.326  0.00  0.00    +0.041 C 
BRANCH  58  59
ATOM     59  CG  GLN A   4       8.391  -4.002  26.444  0.00  0.00    +0.098 C 
BRANCH  59  60
ATOM     60  CD  GLN A   4       7.636  -5.314  26.454  0.00  0.00    +0.211 C 
ATOM     61  OE1 GLN A   4       6.901  -5.662  25.537  0.00  0.00    -0.276 OA
ATOM     62  NE2 GLN A   4       7.743  -6.072  27.579  0.00  0.00    -0.329 N 
ATOM     63 HE21 GLN A   4       8.372  -5.869  28.342  0.00  0.00    +0.145 HD
ATOM     64 HE22 GLN A   4       7.248  -6.956  27.588  0.00  0.00    +0.145 HD
ENDBRANCH  59  60
ENDBRANCH  58  59
ENDBRANCH   1  58
TORSDOF 25
ENDMDL
MODEL 3
REMARK VINA RESULT:      -6.4      2.241      6.879
REMARK  Name = TVLQAVGA-mmff94.pdb
REMARK  34 active torsions:
REMARK  status: ('A' for Active; 'I' for Inactive)
REMARK    1  A    between atoms: _1  and  _2
REMARK    2  A    between atoms: _2  and  _3
REMARK    3  A    between atoms: _2  and  _5
REMARK    4  A    between atoms: _5  and  _6
REMARK    5  A    between atoms: _5  and  _7
REMARK    6  A    between atoms: _15  and  _16
REMARK    7  A    between atoms: _16  and  _17
REMARK    8  A    between atoms: _16  and  _19
REMARK    9  A    between atoms: _19  and  _20
REMARK   10  A    between atoms: _19  and  _21
REMARK   11  A    between atoms: _31  and  _32
REMARK   12  A    between atoms: _32  and  _33
REMARK   13  A    between atoms: _32  and  _35
REMARK   14  A    between atoms: _35  and  _36
REMARK   15  A    between atoms: _36  and  _37
REMARK   16  A    between atoms: _36  and  _38
REMARK   17  A    between atoms: _50  and  _51
REMARK   18  A    between atoms: _51  and  _52
REMARK   19  A    between atoms: _51  and  _54
REMARK   20  A    between atoms: _54  and  _55
REMARK   21  A    between atoms: _55  and  _56
REMARK   22  A    between atoms: _67  and  _68
REMARK   23  A    between atoms: _68  and  _69
REMARK   24  A    between atoms: _68  and  _71
REMARK   25  A    between atoms: _77  and  _78
REMARK   26  A    between atoms: _78  and  _79
REMARK   27  A    between atoms: _78  and  _81
REMARK   28  A    between atoms: _81  and  _82
REMARK   29  A    between atoms: _81  and  _83
REMARK   30  A    between atoms: _93  and  _94
REMARK   31  A    between atoms: _94  and  _95
REMARK   32  A    between atoms: _100  and  _101
REMARK   33  A    between atoms: _101  and  _102
REMARK   34  A    between atoms: _101  and  _104
REMARK                            x       y       z     vdW  Elec       q    Type
REMARK                         _______ _______ _______ _____ _____    ______ ____
ROOT
ATOM      1  CA  GLN A   4       8.403  -1.350  23.954  0.00  0.00    +0.159 C 
ENDROOT
BRANCH   1   4
ATOM      2  C   LEU A   3       6.507  -0.137  25.017  0.00  0.00    +0.234 C 
ATOM      3  O   LEU A   3       7.018   0.967  24.824  0.00  0.00    -0.274 OA
ATOM      4  N   GLN A   4       7.101  -1.309  24.617  0.00  0.00    -0.302 N 
ATOM      5  H   GLN A   4       6.673  -2.206  24.835  0.00  0.00    +0.150 HD
BRANCH   2   6
ATOM      6  CA  LEU A   3       5.133  -0.299  25.699  0.00  0.00    +0.159 C 
BRANCH   6   9
ATOM      7  C   VAL A   2       3.931  -2.377  26.360  0.00  0.00    +0.234 C 
ATOM      8  O   VAL A   2       2.819  -1.908  26.119  0.00  0.00    -0.274 OA
ATOM      9  N   LEU A   3       5.092  -1.657  26.233  0.00  0.00    -0.302 N 
ATOM     10  H   LEU A   3       5.990  -2.126  26.324  0.00  0.00    +0.150 HD
BRANCH   7  11
ATOM     11  CA  VAL A   2       4.112  -3.837  26.822  0.00  0.00    +0.161 C 
BRANCH  11  13
ATOM     12  C   THR A   1       4.240  -4.958  24.604  0.00  0.00    +0.233 C 
ATOM     13  N   VAL A   2       4.852  -4.479  25.734  0.00  0.00    -0.302 N 
ATOM     14  H   VAL A   2       5.863  -4.368  25.761  0.00  0.00    +0.150 HD
ATOM     15  O   THR A   1       3.019  -5.003  24.465  0.00  0.00    -0.274 OA
BRANCH  12  16
ATOM     16  CA  THR A   1       5.203  -5.475  23.525  0.00  0.00    +0.166 C 
BRANCH  16  17
ATOM     17  N   THR A   1       4.416  -6.107  22.426  0.00  0.00    -0.318 NA
ATOM     18  H1  THR A   1       4.796  -7.042  22.266  0.00  0.00    +0.119 HD
ATOM     19  H2  THR A   1       3.477  -6.284  22.799  0.00  0.00    +0.119 HD
ENDBRANCH  16  17
BRANCH  16  20
ATOM     20  CB  THR A   1       6.031  -4.309  22.948  0.00  0.00    +0.137 C 
ATOM     21  CG2 THR A   1       6.282  -4.443  21.453  0.00  0.00    +0.040 C 
BRANCH  20  22
ATOM     22  OG1 THR A   1       5.316  -3.085  23.169  0.00  0.00    -0.390 OA
ATOM     23  HG1 THR A   1       5.882  -2.393  22.767  0.00  0.00    +0.210 HD
ENDBRANCH  20  22
ENDBRANCH  16  20
ENDBRANCH  12  16
ENDBRANCH  11  13
BRANCH  11  24
ATOM     24  CB  VAL A   2       4.886  -3.914  28.157  0.00  0.00    +0.012 C 
ATOM     25  CG2 VAL A   2       5.350  -5.346  28.455  0.00  0.00    +0.009 C 
ATOM     26  CG1 VAL A   2       4.051  -3.409  29.338  0.00  0.00    +0.009 C 
ENDBRANCH  11  24
ENDBRANCH   7  11
ENDBRANCH   6   9
BRANCH   6  27
ATOM     27  CB  LEU A   3       4.982   0.755  26.808  0.00  0.00    +0.034 C 
BRANCH  27  28
ATOM     28  CG  LEU A   3       5.526   0.337  28.188  0.00  0.00    -0.015 C 
ATOM     29  CD2 LEU A   3       6.772   1.162  28.524  0.00  0.00    +0.007 C 
ATOM     30  CD1 LEU A   3       4.486   0.513  29.297  0.00  0.00    +0.007 C 
ENDBRANCH  27  28
ENDBRANCH   6  27
ENDBRANCH   2   6
ENDBRANCH   1   4
BRANCH   1  31
ATOM     31  C   GLN A   4       8.123  -1.255  22.442  0.00  0.00    +0.234 C 
ATOM     32  O   GLN A   4       8.771  -1.903  21.621  0.00  0.00    -0.274 OA
ATOM     33  N   ALA A   5       7.152  -0.356  22.084  0.00  0.00    -0.303 N 
ATOM     34  H   ALA A   5       6.598   0.130  22.786  0.00  0.00    +0.149 HD
BRANCH  33  35
ATOM     35  CA  ALA A   5       6.856  -0.026  20.695  0.00  0.00    +0.156 C 
ATOM     36  CB  ALA A   5       6.023  -1.104  20.019  0.00  0.00    +0.038 C 
BRANCH  35  37
ATOM     37  C   ALA A   5       6.097   1.311  20.698  0.00  0.00    +0.234 C 
ATOM     38  N   VAL A   6       6.153   2.003  21.881  0.00  0.00    -0.302 N 
ATOM     39  H   VAL A   6       6.721   1.663  22.652  0.00  0.00    +0.150 HD
ATOM     40  O   ALA A   5       5.496   1.716  19.704  0.00  0.00    -0.274 OA
BRANCH  38  41
ATOM     41  CA  VAL A   6       5.487   3.291  22.094  0.00  0.00    +0.161 C 
BRANCH  41  42
ATOM     42  C   VAL A   6       6.523   4.144  22.861  0.00  0.00    +0.234 C 
ATOM     43  O   VAL A   6       7.068   5.122  22.349  0.00  0.00    -0.274 OA
ATOM     44  N   GLY A   7       6.818   3.711  24.127  0.00  0.00    -0.305 N 
ATOM     45  H   GLY A   7       6.353   2.898  24.522  0.00  0.00    +0.149 HD
BRANCH  44  46
ATOM     46  CA  GLY A   7       7.867   4.309  24.930  0.00  0.00    +0.200 C 
BRANCH  46  47
ATOM     47  C   GLY A   7       9.221   3.877  24.371  0.00  0.00    +0.231 C 
ATOM     48  N   ALA A   8       9.410   2.518  24.316  0.00  0.00    -0.305 N 
ATOM     49  H   ALA A   8       8.659   1.881  24.573  0.00  0.00    +0.149 HD
ATOM     50  O   GLY A   7      10.063   4.686  23.984  0.00  0.00    -0.274 OA
BRANCH  48  51
ATOM     51  CA  ALA A   8      10.627   1.921  23.789  0.00  0.00    +0.133 C 
ATOM     52  CB  ALA A   8      11.097   0.748  24.637  0.00  0.00    +0.035 C 
BRANCH  51  53
ATOM     53  C   ALA A   8      10.350   1.441  22.372  0.00  0.00    +0.245 C 
ATOM     54  O   ALA A   8       9.449   1.891  21.665  0.00  0.00    -0.299 OA
ENDBRANCH  51  53
ENDBRANCH  48  51
ENDBRANCH  46  47
ENDBRANCH  44  46
ENDBRANCH  41  42
BRANCH  41  55
ATOM     55  CB  VAL A   6       4.172   3.131  22.905  0.00  0.00    +0.012 C 
ATOM     56  CG2 VAL A   6       2.934   3.101  21.998  0.00  0.00    +0.009 C 
ATOM     57  CG1 VAL A   6       3.979   4.244  23.942  0.00  0.00    +0.009 C 
ENDBRANCH  41  55
ENDBRANCH  38  41
ENDBRANCH  35  37
ENDBRANCH  33  35
ENDBRANCH   1  31
BRANCH   1  58
ATOM     58  CB  GLN A   4       9.140  -2.655  24.299  0.00  0.00    +0.041 C 
BRANCH  58  59
ATOM     59  CG  GLN A   4       8.526  -3.420  25.471  0.00  0.00    +0.098 C 
BRANCH  59  60
ATOM     60  CD  GLN A   4       9.055  -4.831  25.610  0.00  0.00    +0.211 C 
ATOM     61  OE1 GLN A   4      10.010  -5.247  24.963  0.00  0.00    -0.276 OA
ATOM     62  NE2 GLN A   4       8.367  -5.663  26.440  0.00  0.00    -0.329 N 
ATOM     63 HE21 GLN A   4       7.611  -5.367  27.039  0.00  0.00    +0.145 HD
ATOM     64 HE22 GLN A   4       8.723  -6.605  26.545  0.00  0.00    +0.145 HD
ENDBRANCH  59  60
ENDBRANCH  58  59
ENDBRANCH   1  58
TORSDOF 25
ENDMDL
MODEL 4
REMARK VINA RESULT:      -6.3      1.781      7.802
REMARK  Name = TVLQAVGA-mmff94.pdb
REMARK  34 active torsions:
REMARK  status: ('A' for Active; 'I' for Inactive)
REMARK    1  A    between atoms: _1  and  _2
REMARK    2  A    between atoms: _2  and  _3
REMARK    3  A    between atoms: _2  and  _5
REMARK    4  A    between atoms: _5  and  _6
REMARK    5  A    between atoms: _5  and  _7
REMARK    6  A    between atoms: _15  and  _16
REMARK    7  A    between atoms: _16  and  _17
REMARK    8  A    between atoms: _16  and  _19
REMARK    9  A    between atoms: _19  and  _20
REMARK   10  A    between atoms: _19  and  _21
REMARK   11  A    between atoms: _31  and  _32
REMARK   12  A    between atoms: _32  and  _33
REMARK   13  A    between atoms: _32  and  _35
REMARK   14  A    between atoms: _35  and  _36
REMARK   15  A    between atoms: _36  and  _37
REMARK   16  A    between atoms: _36  and  _38
REMARK   17  A    between atoms: _50  and  _51
REMARK   18  A    between atoms: _51  and  _52
REMARK   19  A    between atoms: _51  and  _54
REMARK   20  A    between atoms: _54  and  _55
REMARK   21  A    between atoms: _55  and  _56
REMARK   22  A    between atoms: _67  and  _68
REMARK   23  A    between atoms: _68  and  _69
REMARK   24  A    between atoms: _68  and  _71
REMARK   25  A    between atoms: _77  and  _78
REMARK   26  A    between atoms: _78  and  _79
REMARK   27  A    between atoms: _78  and  _81
REMARK   28  A    between atoms: _81  and  _82
REMARK   29  A    between atoms: _81  and  _83
REMARK   30  A    between atoms: _93  and  _94
REMARK   31  A    between atoms: _94  and  _95
REMARK   32  A    between atoms: _100  and  _101
REMARK   33  A    between atoms: _101  and  _102
REMARK   34  A    between atoms: _101  and  _104
REMARK                            x       y       z     vdW  Elec       q    Type
REMARK                         _______ _______ _______ _____ _____    ______ ____
ROOT
ATOM      1  CA  GLN A   4       6.438   1.535  22.881  0.00  0.00    +0.159 C 
ENDROOT
BRANCH   1   4
ATOM      2  C   LEU A   3       5.444   0.844  25.056  0.00  0.00    +0.234 C 
ATOM      3  O   LEU A   3       5.379  -0.341  24.725  0.00  0.00    -0.274 OA
ATOM      4  N   GLN A   4       5.955   1.817  24.232  0.00  0.00    -0.302 N 
ATOM      5  H   GLN A   4       5.950   2.793  24.518  0.00  0.00    +0.150 HD
BRANCH   2   6
ATOM      6  CA  LEU A   3       4.987   1.337  26.444  0.00  0.00    +0.159 C 
BRANCH   6   9
ATOM      7  C   VAL A   2       2.958   0.084  27.162  0.00  0.00    +0.234 C 
ATOM      8  O   VAL A   2       2.182   0.957  26.773  0.00  0.00    -0.274 OA
ATOM      9  N   LEU A   3       4.323   0.207  27.087  0.00  0.00    -0.302 N 
ATOM     10  H   LEU A   3       4.915  -0.590  27.306  0.00  0.00    +0.150 HD
BRANCH   7  11
ATOM     11  CA  VAL A   2       2.451  -1.242  27.764  0.00  0.00    +0.161 C 
BRANCH  11  13
ATOM     12  C   THR A   1       2.665  -2.884  25.907  0.00  0.00    +0.233 C 
ATOM     13  N   VAL A   2       3.174  -2.281  27.029  0.00  0.00    -0.302 N 
ATOM     14  H   VAL A   2       4.157  -2.389  27.268  0.00  0.00    +0.150 HD
ATOM     15  O   THR A   1       1.520  -2.696  25.501  0.00  0.00    -0.274 OA
BRANCH  12  16
ATOM     16  CA  THR A   1       3.631  -3.852  25.208  0.00  0.00    +0.166 C 
BRANCH  16  17
ATOM     17  N   THR A   1       5.028  -3.350  25.366  0.00  0.00    -0.318 NA
ATOM     18  H1  THR A   1       5.186  -3.173  26.360  0.00  0.00    +0.119 HD
ATOM     19  H2  THR A   1       5.650  -4.139  25.156  0.00  0.00    +0.119 HD
ENDBRANCH  16  17
BRANCH  16  20
ATOM     20  CB  THR A   1       3.524  -5.256  25.835  0.00  0.00    +0.137 C 
ATOM     21  CG2 THR A   1       4.848  -5.757  26.394  0.00  0.00    +0.040 C 
BRANCH  20  22
ATOM     22  OG1 THR A   1       2.578  -5.207  26.912  0.00  0.00    -0.390 OA
ATOM     23  HG1 THR A   1       2.119  -4.349  26.797  0.00  0.00    +0.210 HD
ENDBRANCH  20  22
ENDBRANCH  16  20
ENDBRANCH  12  16
ENDBRANCH  11  13
BRANCH  11  24
ATOM     24  CB  VAL A   2       2.736  -1.317  29.281  0.00  0.00    +0.012 C 
ATOM     25  CG2 VAL A   2       2.398  -2.702  29.849  0.00  0.00    +0.009 C 
ATOM     26  CG1 VAL A   2       1.960  -0.256  30.068  0.00  0.00    +0.009 C 
ENDBRANCH  11  24
ENDBRANCH   7  11
ENDBRANCH   6   9
BRANCH   6  27
ATOM     27  CB  LEU A   3       6.207   1.815  27.247  0.00  0.00    +0.034 C 
BRANCH  27  28
ATOM     28  CG  LEU A   3       6.799   0.776  28.219  0.00  0.00    -0.015 C 
ATOM     29  CD2 LEU A   3       7.934   0.012  27.530  0.00  0.00    +0.007 C 
ATOM     30  CD1 LEU A   3       7.329   1.421  29.503  0.00  0.00    +0.007 C 
ENDBRANCH  27  28
ENDBRANCH   6  27
ENDBRANCH   2   6
ENDBRANCH   1   4
BRANCH   1  31
ATOM     31  C   GLN A   4       7.966   1.371  22.992  0.00  0.00    +0.234 C 
ATOM     32  O   GLN A   4       8.741   2.248  22.613  0.00  0.00    -0.274 OA
ATOM     33  N   ALA A   5       8.389   0.162  23.480  0.00  0.00    -0.303 N 
ATOM     34  H   ALA A   5       7.726  -0.525  23.833  0.00  0.00    +0.149 HD
BRANCH  33  35
ATOM     35  CA  ALA A   5       9.793  -0.226  23.518  0.00  0.00    +0.156 C 
ATOM     36  CB  ALA A   5      10.473   0.218  24.804  0.00  0.00    +0.038 C 
BRANCH  35  37
ATOM     37  C   ALA A   5       9.845  -1.757  23.390  0.00  0.00    +0.234 C 
ATOM     38  N   VAL A   6       8.752  -2.415  23.894  0.00  0.00    -0.302 N 
ATOM     39  H   VAL A   6       7.955  -1.894  24.252  0.00  0.00    +0.150 HD
ATOM     40  O   ALA A   5      10.799  -2.332  22.868  0.00  0.00    -0.274 OA
BRANCH  38  41
ATOM     41  CA  VAL A   6       8.611  -3.874  23.880  0.00  0.00    +0.161 C 
BRANCH  41  42
ATOM     42  C   VAL A   6       7.224  -4.126  23.248  0.00  0.00    +0.234 C 
ATOM     43  O   VAL A   6       6.667  -5.223  23.315  0.00  0.00    -0.274 OA
ATOM     44  N   GLY A   7       6.681  -3.062  22.578  0.00  0.00    -0.305 N 
ATOM     45  H   GLY A   7       7.165  -2.168  22.537  0.00  0.00    +0.149 HD
BRANCH  44  46
ATOM     46  CA  GLY A   7       5.455  -3.168  21.809  0.00  0.00    +0.200 C 
BRANCH  46  47
ATOM     47  C   GLY A   7       5.678  -2.535  20.437  0.00  0.00    +0.231 C 
ATOM     48  N   ALA A   8       6.082  -1.223  20.471  0.00  0.00    -0.305 N 
ATOM     49  H   ALA A   8       6.271  -0.763  21.359  0.00  0.00    +0.149 HD
ATOM     50  O   GLY A   7       5.527  -3.162  19.390  0.00  0.00    -0.274 OA
BRANCH  48  51
ATOM     51  CA  ALA A   8       6.368  -0.464  19.263  0.00  0.00    +0.133 C 
ATOM     52  CB  ALA A   8       5.293   0.573  18.977  0.00  0.00    +0.035 C 
BRANCH  51  53
ATOM     53  C   ALA A   8       7.708   0.233  19.442  0.00  0.00    +0.245 C 
ATOM     54  O   ALA A   8       8.599  -0.185  20.182  0.00  0.00    -0.299 OA
ENDBRANCH  51  53
ENDBRANCH  48  51
ENDBRANCH  46  47
ENDBRANCH  44  46
ENDBRANCH  41  42
BRANCH  41  55
ATOM     55  CB  VAL A   6       8.700  -4.472  25.310  0.00  0.00    +0.012 C 
ATOM     56  CG2 VAL A   6       8.463  -3.414  26.396  0.00  0.00    +0.009 C 
ATOM     57  CG1 VAL A   6      10.050  -5.147  25.586  0.00  0.00    +0.009 C 
ENDBRANCH  41  55
ENDBRANCH  38  41
ENDBRANCH  35  37
ENDBRANCH  33  35
ENDBRANCH   1  31
BRANCH   1  58
ATOM     58  CB  GLN A   4       6.074   2.687  21.930  0.00  0.00    +0.041 C 
BRANCH  58  59
ATOM     59  CG  GLN A   4       5.143   3.729  22.549  0.00  0.00    +0.098 C 
BRANCH  59  60
ATOM     60  CD  GLN A   4       3.687   3.524  22.188  0.00  0.00    +0.211 C 
ATOM     61  OE1 GLN A   4       2.770   3.780  22.961  0.00  0.00    -0.276 OA
ATOM     62  NE2 GLN A   4       3.431   2.957  20.977  0.00  0.00    -0.329 N 
ATOM     63 HE21 GLN A   4       4.135   2.775  20.277  0.00  0.00    +0.145 HD
ATOM     64 HE22 GLN A   4       2.459   2.827  20.726  0.00  0.00    +0.145 HD
ENDBRANCH  59  60
ENDBRANCH  58  59
ENDBRANCH   1  58
TORSDOF 25
ENDMDL
MODEL 5
REMARK VINA RESULT:      -6.3      2.230      5.672
REMARK  Name = TVLQAVGA-mmff94.pdb
REMARK  34 active torsions:
REMARK  status: ('A' for Active; 'I' for Inactive)
REMARK    1  A    between atoms: _1  and  _2
REMARK    2  A    between atoms: _2  and  _3
REMARK    3  A    between atoms: _2  and  _5
REMARK    4  A    between atoms: _5  and  _6
REMARK    5  A    between atoms: _5  and  _7
REMARK    6  A    between atoms: _15  and  _16
REMARK    7  A    between atoms: _16  and  _17
REMARK    8  A    between atoms: _16  and  _19
REMARK    9  A    between atoms: _19  and  _20
REMARK   10  A    between atoms: _19  and  _21
REMARK   11  A    between atoms: _31  and  _32
REMARK   12  A    between atoms: _32  and  _33
REMARK   13  A    between atoms: _32  and  _35
REMARK   14  A    between atoms: _35  and  _36
REMARK   15  A    between atoms: _36  and  _37
REMARK   16  A    between atoms: _36  and  _38
REMARK   17  A    between atoms: _50  and  _51
REMARK   18  A    between atoms: _51  and  _52
REMARK   19  A    between atoms: _51  and  _54
REMARK   20  A    between atoms: _54  and  _55
REMARK   21  A    between atoms: _55  and  _56
REMARK   22  A    between atoms: _67  and  _68
REMARK   23  A    between atoms: _68  and  _69
REMARK   24  A    between atoms: _68  and  _71
REMARK   25  A    between atoms: _77  and  _78
REMARK   26  A    between atoms: _78  and  _79
REMARK   27  A    between atoms: _78  and  _81
REMARK   28  A    between atoms: _81  and  _82
REMARK   29  A    between atoms: _81  and  _83
REMARK   30  A    between atoms: _93  and  _94
REMARK   31  A    between atoms: _94  and  _95
REMARK   32  A    between atoms: _100  and  _101
REMARK   33  A    between atoms: _101  and  _102
REMARK   34  A    between atoms: _101  and  _104
REMARK                            x       y       z     vdW  Elec       q    Type
REMARK                         _______ _______ _______ _____ _____    ______ ____
ROOT
ATOM      1  CA  GLN A   4       9.282  -2.956  24.667  0.00  0.00    +0.159 C 
ENDROOT
BRANCH   1   4
ATOM      2  C   LEU A   3       9.270  -0.473  24.838  0.00  0.00    +0.234 C 
ATOM      3  O   LEU A   3      10.348  -0.361  24.253  0.00  0.00    -0.274 OA
ATOM      4  N   GLN A   4       8.674  -1.689  25.068  0.00  0.00    -0.302 N 
ATOM      5  H   GLN A   4       7.806  -1.748  25.597  0.00  0.00    +0.150 HD
BRANCH   2   6
ATOM      6  CA  LEU A   3       8.473   0.751  25.335  0.00  0.00    +0.159 C 
BRANCH   6   9
ATOM      7  C   VAL A   2       8.471   2.652  23.728  0.00  0.00    +0.234 C 
ATOM      8  O   VAL A   2       9.294   3.304  24.371  0.00  0.00    -0.274 OA
ATOM      9  N   LEU A   3       7.984   1.439  24.144  0.00  0.00    -0.302 N 
ATOM     10  H   LEU A   3       7.402   0.886  23.519  0.00  0.00    +0.150 HD
BRANCH   7  11
ATOM     11  CA  VAL A   2       7.918   3.153  22.378  0.00  0.00    +0.161 C 
BRANCH  11  13
ATOM     12  C   THR A   1       8.031   0.921  21.284  0.00  0.00    +0.233 C 
ATOM     13  N   VAL A   2       7.298   1.973  21.774  0.00  0.00    -0.302 N 
ATOM     14  H   VAL A   2       6.296   1.875  21.919  0.00  0.00    +0.150 HD
ATOM     15  O   THR A   1       9.257   0.935  21.198  0.00  0.00    -0.274 OA
BRANCH  12  16
ATOM     16  CA  THR A   1       7.193  -0.277  20.812  0.00  0.00    +0.166 C 
BRANCH  16  17
ATOM     17  N   THR A   1       6.480  -0.868  21.982  0.00  0.00    -0.318 NA
ATOM     18  H1  THR A   1       6.673  -0.281  22.796  0.00  0.00    +0.119 HD
ATOM     19  H2  THR A   1       5.476  -0.734  21.815  0.00  0.00    +0.119 HD
ENDBRANCH  16  17
BRANCH  16  20
ATOM     20  CB  THR A   1       6.156   0.179  19.766  0.00  0.00    +0.137 C 
ATOM     21  CG2 THR A   1       6.778   0.492  18.413  0.00  0.00    +0.040 C 
BRANCH  20  22
ATOM     22  OG1 THR A   1       5.197  -0.872  19.581  0.00  0.00    -0.390 OA
ATOM     23  HG1 THR A   1       4.527  -0.720  20.280  0.00  0.00    +0.210 HD
ENDBRANCH  20  22
ENDBRANCH  16  20
ENDBRANCH  12  16
ENDBRANCH  11  13
BRANCH  11  24
ATOM     24  CB  VAL A   2       6.893   4.292  22.576  0.00  0.00    +0.012 C 
ATOM     25  CG2 VAL A   2       7.534   5.670  22.363  0.00  0.00    +0.009 C 
ATOM     26  CG1 VAL A   2       6.251   4.256  23.968  0.00  0.00    +0.009 C 
ENDBRANCH  11  24
ENDBRANCH   7  11
ENDBRANCH   6   9
BRANCH   6  27
ATOM     27  CB  LEU A   3       7.321   0.281  26.237  0.00  0.00    +0.034 C 
BRANCH  27  28
ATOM     28  CG  LEU A   3       7.150   1.074  27.548  0.00  0.00    -0.015 C 
ATOM     29  CD2 LEU A   3       6.813   2.534  27.229  0.00  0.00    +0.007 C 
ATOM     30  CD1 LEU A   3       6.056   0.485  28.442  0.00  0.00    +0.007 C 
ENDBRANCH  27  28
ENDBRANCH   6  27
ENDBRANCH   2   6
ENDBRANCH   1   4
BRANCH   1  31
ATOM     31  C   GLN A   4       8.644  -3.334  23.317  0.00  0.00    +0.234 C 
ATOM     32  O   GLN A   4       8.787  -2.634  22.314  0.00  0.00    -0.274 OA
ATOM     33  N   ALA A   5       7.863  -4.460  23.334  0.00  0.00    -0.303 N 
ATOM     34  H   ALA A   5       7.803  -5.047  24.163  0.00  0.00    +0.149 HD
BRANCH  33  35
ATOM     35  CA  ALA A   5       7.066  -4.886  22.190  0.00  0.00    +0.156 C 
ATOM     36  CB  ALA A   5       6.966  -6.401  22.097  0.00  0.00    +0.038 C 
BRANCH  35  37
ATOM     37  C   ALA A   5       5.668  -4.269  22.357  0.00  0.00    +0.234 C 
ATOM     38  N   VAL A   6       4.992  -4.669  23.480  0.00  0.00    -0.302 N 
ATOM     39  H   VAL A   6       5.440  -5.272  24.165  0.00  0.00    +0.150 HD
ATOM     40  O   ALA A   5       5.209  -3.474  21.537  0.00  0.00    -0.274 OA
BRANCH  38  41
ATOM     41  CA  VAL A   6       3.642  -4.207  23.817  0.00  0.00    +0.161 C 
BRANCH  41  42
ATOM     42  C   VAL A   6       3.826  -3.365  25.100  0.00  0.00    +0.234 C 
ATOM     43  O   VAL A   6       4.302  -2.229  25.070  0.00  0.00    -0.274 OA
ATOM     44  N   GLY A   7       3.463  -3.984  26.266  0.00  0.00    -0.305 N 
ATOM     45  H   GLY A   7       3.076  -4.924  26.260  0.00  0.00    +0.149 HD
BRANCH  44  46
ATOM     46  CA  GLY A   7       3.702  -3.393  27.569  0.00  0.00    +0.200 C 
BRANCH  46  47
ATOM     47  C   GLY A   7       2.579  -2.404  27.874  0.00  0.00    +0.231 C 
ATOM     48  N   ALA A   8       2.914  -1.084  27.696  0.00  0.00    -0.305 N 
ATOM     49  H   ALA A   8       3.826  -0.828  27.325  0.00  0.00    +0.149 HD
ATOM     50  O   GLY A   7       1.459  -2.768  28.231  0.00  0.00    -0.274 OA
BRANCH  48  51
ATOM     51  CA  ALA A   8       1.964  -0.003  27.912  0.00  0.00    +0.133 C 
ATOM     52  CB  ALA A   8       2.056   0.558  29.324  0.00  0.00    +0.035 C 
BRANCH  51  53
ATOM     53  C   ALA A   8       2.261   1.102  26.909  0.00  0.00    +0.245 C 
ATOM     54  O   ALA A   8       3.362   1.267  26.384  0.00  0.00    -0.299 OA
ENDBRANCH  51  53
ENDBRANCH  48  51
ENDBRANCH  46  47
ENDBRANCH  44  46
ENDBRANCH  41  42
BRANCH  41  55
ATOM     55  CB  VAL A   6       2.671  -5.395  24.054  0.00  0.00    +0.012 C 
ATOM     56  CG2 VAL A   6       3.366  -6.753  23.885  0.00  0.00    +0.009 C 
ATOM     57  CG1 VAL A   6       1.456  -5.360  23.118  0.00  0.00    +0.009 C 
ENDBRANCH  41  55
ENDBRANCH  38  41
ENDBRANCH  35  37
ENDBRANCH  33  35
ENDBRANCH   1  31
BRANCH   1  58
ATOM     58  CB  GLN A   4       9.015  -4.039  25.726  0.00  0.00    +0.041 C 
BRANCH  58  59
ATOM     59  CG  GLN A   4       7.610  -3.985  26.324  0.00  0.00    +0.098 C 
BRANCH  59  60
ATOM     60  CD  GLN A   4       7.009  -5.354  26.571  0.00  0.00    +0.211 C 
ATOM     61  OE1 GLN A   4       6.048  -5.778  25.939  0.00  0.00    -0.276 OA
ATOM     62  NE2 GLN A   4       7.538  -6.077  27.595  0.00  0.00    -0.329 N 
ATOM     63 HE21 GLN A   4       8.360  -5.808  28.114  0.00  0.00    +0.145 HD
ATOM     64 HE22 GLN A   4       7.146  -6.996  27.758  0.00  0.00    +0.145 HD
ENDBRANCH  59  60
ENDBRANCH  58  59
ENDBRANCH   1  58
TORSDOF 25
ENDMDL
MODEL 6
REMARK VINA RESULT:      -6.3      2.147      7.737
REMARK  Name = TVLQAVGA-mmff94.pdb
REMARK  34 active torsions:
REMARK  status: ('A' for Active; 'I' for Inactive)
REMARK    1  A    between atoms: _1  and  _2
REMARK    2  A    between atoms: _2  and  _3
REMARK    3  A    between atoms: _2  and  _5
REMARK    4  A    between atoms: _5  and  _6
REMARK    5  A    between atoms: _5  and  _7
REMARK    6  A    between atoms: _15  and  _16
REMARK    7  A    between atoms: _16  and  _17
REMARK    8  A    between atoms: _16  and  _19
REMARK    9  A    between atoms: _19  and  _20
REMARK   10  A    between atoms: _19  and  _21
REMARK   11  A    between atoms: _31  and  _32
REMARK   12  A    between atoms: _32  and  _33
REMARK   13  A    between atoms: _32  and  _35
REMARK   14  A    between atoms: _35  and  _36
REMARK   15  A    between atoms: _36  and  _37
REMARK   16  A    between atoms: _36  and  _38
REMARK   17  A    between atoms: _50  and  _51
REMARK   18  A    between atoms: _51  and  _52
REMARK   19  A    between atoms: _51  and  _54
REMARK   20  A    between atoms: _54  and  _55
REMARK   21  A    between atoms: _55  and  _56
REMARK   22  A    between atoms: _67  and  _68
REMARK   23  A    between atoms: _68  and  _69
REMARK   24  A    between atoms: _68  and  _71
REMARK   25  A    between atoms: _77  and  _78
REMARK   26  A    between atoms: _78  and  _79
REMARK   27  A    between atoms: _78  and  _81
REMARK   28  A    between atoms: _81  and  _82
REMARK   29  A    between atoms: _81  and  _83
REMARK   30  A    between atoms: _93  and  _94
REMARK   31  A    between atoms: _94  and  _95
REMARK   32  A    between atoms: _100  and  _101
REMARK   33  A    between atoms: _101  and  _102
REMARK   34  A    between atoms: _101  and  _104
REMARK                            x       y       z     vdW  Elec       q    Type
REMARK                         _______ _______ _______ _____ _____    ______ ____
ROOT
ATOM      1  CA  GLN A   4       8.901  -0.378  21.107  0.00  0.00    +0.159 C 
ENDROOT
BRANCH   1   4
ATOM      2  C   LEU A   3       7.286  -1.665  22.497  0.00  0.00    +0.234 C 
ATOM      3  O   LEU A   3       6.768  -0.647  22.957  0.00  0.00    -0.274 OA
ATOM      4  N   GLN A   4       8.313  -1.628  21.586  0.00  0.00    -0.302 N 
ATOM      5  H   GLN A   4       8.749  -2.489  21.263  0.00  0.00    +0.150 HD
BRANCH   2   6
ATOM      6  CA  LEU A   3       6.800  -3.079  22.879  0.00  0.00    +0.159 C 
BRANCH   6   9
ATOM      7  C   VAL A   2       5.025  -3.649  24.529  0.00  0.00    +0.234 C 
ATOM      8  O   VAL A   2       5.677  -4.561  25.038  0.00  0.00    -0.274 OA
ATOM      9  N   LEU A   3       5.468  -2.918  23.456  0.00  0.00    -0.302 N 
ATOM     10  H   LEU A   3       4.949  -2.098  23.153  0.00  0.00    +0.150 HD
BRANCH   7  11
ATOM     11  CA  VAL A   2       3.640  -3.243  25.072  0.00  0.00    +0.161 C 
BRANCH  11  13
ATOM     12  C   THR A   1       2.714  -5.175  23.806  0.00  0.00    +0.233 C 
ATOM     13  N   VAL A   2       2.834  -4.461  24.971  0.00  0.00    -0.302 N 
ATOM     14  H   VAL A   2       2.534  -4.867  25.854  0.00  0.00    +0.150 HD
ATOM     15  O   THR A   1       3.165  -4.789  22.729  0.00  0.00    -0.274 OA
BRANCH  12  16
ATOM     16  CA  THR A   1       1.934  -6.491  23.940  0.00  0.00    +0.166 C 
BRANCH  16  17
ATOM     17  N   THR A   1       2.096  -7.288  22.689  0.00  0.00    -0.318 NA
ATOM     18  H1  THR A   1       1.673  -6.759  21.923  0.00  0.00    +0.119 HD
ATOM     19  H2  THR A   1       3.098  -7.285  22.465  0.00  0.00    +0.119 HD
ENDBRANCH  16  17
BRANCH  16  20
ATOM     20  CB  THR A   1       2.470  -7.308  25.132  0.00  0.00    +0.137 C 
ATOM     21  CG2 THR A   1       1.496  -8.378  25.604  0.00  0.00    +0.040 C 
BRANCH  20  22
ATOM     22  OG1 THR A   1       3.685  -7.960  24.734  0.00  0.00    -0.390 OA
ATOM     23  HG1 THR A   1       3.462  -8.915  24.730  0.00  0.00    +0.210 HD
ENDBRANCH  20  22
ENDBRANCH  16  20
ENDBRANCH  12  16
ENDBRANCH  11  13
BRANCH  11  24
ATOM     24  CB  VAL A   2       3.730  -2.742  26.531  0.00  0.00    +0.012 C 
ATOM     25  CG2 VAL A   2       3.790  -3.911  27.523  0.00  0.00    +0.009 C 
ATOM     26  CG1 VAL A   2       2.553  -1.836  26.904  0.00  0.00    +0.009 C 
ENDBRANCH  11  24
ENDBRANCH   7  11
ENDBRANCH   6   9
BRANCH   6  27
ATOM     27  CB  LEU A   3       6.776  -3.969  21.626  0.00  0.00    +0.034 C 
BRANCH  27  28
ATOM     28  CG  LEU A   3       6.463  -5.456  21.885  0.00  0.00    -0.015 C 
ATOM     29  CD2 LEU A   3       6.061  -6.135  20.573  0.00  0.00    +0.007 C 
ATOM     30  CD1 LEU A   3       7.652  -6.200  22.498  0.00  0.00    +0.007 C 
ENDBRANCH  27  28
ENDBRANCH   6  27
ENDBRANCH   2   6
ENDBRANCH   1   4
BRANCH   1  31
ATOM     31  C   GLN A   4       9.584   0.273  22.324  0.00  0.00    +0.234 C 
ATOM     32  O   GLN A   4      10.335  -0.363  23.063  0.00  0.00    -0.274 OA
ATOM     33  N   ALA A   5       9.246   1.581  22.553  0.00  0.00    -0.303 N 
ATOM     34  H   ALA A   5       8.662   2.097  21.898  0.00  0.00    +0.149 HD
BRANCH  33  35
ATOM     35  CA  ALA A   5       9.678   2.313  23.737  0.00  0.00    +0.156 C 
ATOM     36  CB  ALA A   5      10.551   3.507  23.382  0.00  0.00    +0.038 C 
BRANCH  35  37
ATOM     37  C   ALA A   5       8.411   2.780  24.470  0.00  0.00    +0.234 C 
ATOM     38  N   VAL A   6       7.265   2.111  24.124  0.00  0.00    -0.302 N 
ATOM     39  H   VAL A   6       7.301   1.324  23.482  0.00  0.00    +0.150 HD
ATOM     40  O   ALA A   5       8.441   3.683  25.306  0.00  0.00    -0.274 OA
BRANCH  38  41
ATOM     41  CA  VAL A   6       5.950   2.412  24.698  0.00  0.00    +0.161 C 
BRANCH  41  42
ATOM     42  C   VAL A   6       5.601   1.167  25.547  0.00  0.00    +0.234 C 
ATOM     43  O   VAL A   6       4.460   0.964  25.965  0.00  0.00    -0.274 OA
ATOM     44  N   GLY A   7       6.652   0.337  25.832  0.00  0.00    -0.305 N 
ATOM     45  H   GLY A   7       7.584   0.533  25.475  0.00  0.00    +0.149 HD
BRANCH  44  46
ATOM     46  CA  GLY A   7       6.529  -0.795  26.730  0.00  0.00    +0.200 C 
BRANCH  46  47
ATOM     47  C   GLY A   7       7.845  -1.571  26.728  0.00  0.00    +0.231 C 
ATOM     48  N   ALA A   8       7.744  -2.866  26.281  0.00  0.00    -0.305 N 
ATOM     49  H   ALA A   8       6.860  -3.223  25.925  0.00  0.00    +0.149 HD
ATOM     50  O   GLY A   7       8.909  -1.065  27.079  0.00  0.00    -0.274 OA
BRANCH  48  51
ATOM     51  CA  ALA A   8       8.897  -3.748  26.183  0.00  0.00    +0.133 C 
ATOM     52  CB  ALA A   8       8.628  -5.105  26.817  0.00  0.00    +0.035 C 
BRANCH  51  53
ATOM     53  C   ALA A   8       9.233  -3.936  24.711  0.00  0.00    +0.245 C 
ATOM     54  O   ALA A   8      10.075  -3.265  24.114  0.00  0.00    -0.299 OA
ENDBRANCH  51  53
ENDBRANCH  48  51
ENDBRANCH  46  47
ENDBRANCH  44  46
ENDBRANCH  41  42
BRANCH  41  55
ATOM     55  CB  VAL A   6       4.886   2.663  23.596  0.00  0.00    +0.012 C 
ATOM     56  CG2 VAL A   6       5.520   3.106  22.271  0.00  0.00    +0.009 C 
ATOM     57  CG1 VAL A   6       3.848   3.716  24.006  0.00  0.00    +0.009 C 
ENDBRANCH  41  55
ENDBRANCH  38  41
ENDBRANCH  35  37
ENDBRANCH  33  35
ENDBRANCH   1  31
BRANCH   1  58
ATOM     58  CB  GLN A   4       7.812   0.539  20.527  0.00  0.00    +0.041 C 
BRANCH  58  59
ATOM     59  CG  GLN A   4       7.487   0.260  19.060  0.00  0.00    +0.098 C 
BRANCH  59  60
ATOM     60  CD  GLN A   4       6.139  -0.400  18.859  0.00  0.00    +0.211 C 
ATOM     61  OE1 GLN A   4       5.718  -1.285  19.596  0.00  0.00    -0.276 OA
ATOM     62  NE2 GLN A   4       5.432  -0.022  17.759  0.00  0.00    -0.329 N 
ATOM     63 HE21 GLN A   4       5.697   0.736  17.148  0.00  0.00    +0.145 HD
ATOM     64 HE22 GLN A   4       4.525  -0.452  17.625  0.00  0.00    +0.145 HD
ENDBRANCH  59  60
ENDBRANCH  58  59
ENDBRANCH   1  58
TORSDOF 25
ENDMDL
MODEL 7
REMARK VINA RESULT:      -6.3      2.338      6.875
REMARK  Name = TVLQAVGA-mmff94.pdb
REMARK  34 active torsions:
REMARK  status: ('A' for Active; 'I' for Inactive)
REMARK    1  A    between atoms: _1  and  _2
REMARK    2  A    between atoms: _2  and  _3
REMARK    3  A    between atoms: _2  and  _5
REMARK    4  A    between atoms: _5  and  _6
REMARK    5  A    between atoms: _5  and  _7
REMARK    6  A    between atoms: _15  and  _16
REMARK    7  A    between atoms: _16  and  _17
REMARK    8  A    between atoms: _16  and  _19
REMARK    9  A    between atoms: _19  and  _20
REMARK   10  A    between atoms: _19  and  _21
REMARK   11  A    between atoms: _31  and  _32
REMARK   12  A    between atoms: _32  and  _33
REMARK   13  A    between atoms: _32  and  _35
REMARK   14  A    between atoms: _35  and  _36
REMARK   15  A    between atoms: _36  and  _37
REMARK   16  A    between atoms: _36  and  _38
REMARK   17  A    between atoms: _50  and  _51
REMARK   18  A    between atoms: _51  and  _52
REMARK   19  A    between atoms: _51  and  _54
REMARK   20  A    between atoms: _54  and  _55
REMARK   21  A    between atoms: _55  and  _56
REMARK   22  A    between atoms: _67  and  _68
REMARK   23  A    between atoms: _68  and  _69
REMARK   24  A    between atoms: _68  and  _71
REMARK   25  A    between atoms: _77  and  _78
REMARK   26  A    between atoms: _78  and  _79
REMARK   27  A    between atoms: _78  and  _81
REMARK   28  A    between atoms: _81  and  _82
REMARK   29  A    between atoms: _81  and  _83
REMARK   30  A    between atoms: _93  and  _94
REMARK   31  A    between atoms: _94  and  _95
REMARK   32  A    between atoms: _100  and  _101
REMARK   33  A    between atoms: _101  and  _102
REMARK   34  A    between atoms: _101  and  _104
REMARK                            x       y       z     vdW  Elec       q    Type
REMARK                         _______ _______ _______ _____ _____    ______ ____
ROOT
ATOM      1  CA  GLN A   4       9.214  -0.623  23.642  0.00  0.00    +0.159 C 
ENDROOT
BRANCH   1   4
ATOM      2  C   LEU A   3       7.573   0.660  25.004  0.00  0.00    +0.234 C 
ATOM      3  O   LEU A   3       6.933   1.020  24.015  0.00  0.00    -0.274 OA
ATOM      4  N   GLN A   4       8.681  -0.146  24.917  0.00  0.00    -0.302 N 
ATOM      5  H   GLN A   4       9.214  -0.385  25.750  0.00  0.00    +0.150 HD
BRANCH   2   6
ATOM      6  CA  LEU A   3       7.164   1.058  26.437  0.00  0.00    +0.159 C 
BRANCH   6   9
ATOM      7  C   VAL A   2       6.656   3.495  26.394  0.00  0.00    +0.234 C 
ATOM      8  O   VAL A   2       7.809   3.824  26.674  0.00  0.00    -0.274 OA
ATOM      9  N   LEU A   3       6.248   2.188  26.309  0.00  0.00    -0.302 N 
ATOM     10  H   LEU A   3       5.320   1.969  25.954  0.00  0.00    +0.150 HD
BRANCH   7  11
ATOM     11  CA  VAL A   2       5.563   4.543  26.103  0.00  0.00    +0.161 C 
BRANCH  11  13
ATOM     12  C   THR A   1       5.420   4.510  23.619  0.00  0.00    +0.233 C 
ATOM     13  N   VAL A   2       4.957   4.104  24.845  0.00  0.00    -0.302 N 
ATOM     14  H   VAL A   2       4.309   3.323  24.915  0.00  0.00    +0.150 HD
ATOM     15  O   THR A   1       6.291   5.365  23.477  0.00  0.00    -0.274 OA
BRANCH  12  16
ATOM     16  CA  THR A   1       4.734   3.835  22.421  0.00  0.00    +0.166 C 
BRANCH  16  17
ATOM     17  N   THR A   1       5.339   2.488  22.205  0.00  0.00    -0.318 NA
ATOM     18  H1  THR A   1       4.825   1.818  22.781  0.00  0.00    +0.119 HD
ATOM     19  H2  THR A   1       5.109   2.212  21.244  0.00  0.00    +0.119 HD
ENDBRANCH  16  17
BRANCH  16  20
ATOM     20  CB  THR A   1       3.226   3.674  22.694  0.00  0.00    +0.137 C 
ATOM     21  CG2 THR A   1       2.414   3.454  21.425  0.00  0.00    +0.040 C 
BRANCH  20  22
ATOM     22  OG1 THR A   1       3.031   2.537  23.547  0.00  0.00    -0.390 OA
ATOM     23  HG1 THR A   1       3.446   1.792  23.062  0.00  0.00    +0.210 HD
ENDBRANCH  20  22
ENDBRANCH  16  20
ENDBRANCH  12  16
ENDBRANCH  11  13
BRANCH  11  24
ATOM     24  CB  VAL A   2       4.521   4.603  27.243  0.00  0.00    +0.012 C 
ATOM     25  CG2 VAL A   2       3.344   5.519  26.883  0.00  0.00    +0.009 C 
ATOM     26  CG1 VAL A   2       5.136   5.083  28.562  0.00  0.00    +0.009 C 
ENDBRANCH  11  24
ENDBRANCH   7  11
ENDBRANCH   6   9
BRANCH   6  27
ATOM     27  CB  LEU A   3       6.500  -0.140  27.133  0.00  0.00    +0.034 C 
BRANCH  27  28
ATOM     28  CG  LEU A   3       5.090  -0.496  26.621  0.00  0.00    -0.015 C 
ATOM     29  CD2 LEU A   3       5.090  -1.920  26.057  0.00  0.00    +0.007 C 
ATOM     30  CD1 LEU A   3       4.030  -0.385  27.720  0.00  0.00    +0.007 C 
ENDBRANCH  27  28
ENDBRANCH   6  27
ENDBRANCH   2   6
ENDBRANCH   1   4
BRANCH   1  31
ATOM     31  C   GLN A   4       9.698  -2.065  23.886  0.00  0.00    +0.234 C 
ATOM     32  O   GLN A   4      10.594  -2.571  23.211  0.00  0.00    -0.274 OA
ATOM     33  N   ALA A   5       9.019  -2.752  24.859  0.00  0.00    -0.303 N 
ATOM     34  H   ALA A   5       8.317  -2.293  25.436  0.00  0.00    +0.149 HD
BRANCH  33  35
ATOM     35  CA  ALA A   5       9.240  -4.168  25.125  0.00  0.00    +0.156 C 
ATOM     36  CB  ALA A   5       9.161  -4.487  26.610  0.00  0.00    +0.038 C 
BRANCH  35  37
ATOM     37  C   ALA A   5       8.163  -4.948  24.354  0.00  0.00    +0.234 C 
ATOM     38  N   VAL A   6       6.894  -4.832  24.861  0.00  0.00    -0.302 N 
ATOM     39  H   VAL A   6       6.705  -4.212  25.644  0.00  0.00    +0.150 HD
ATOM     40  O   ALA A   5       8.435  -5.615  23.357  0.00  0.00    -0.274 OA
BRANCH  38  41
ATOM     41  CA  VAL A   6       5.729  -5.506  24.280  0.00  0.00    +0.161 C 
BRANCH  41  42
ATOM     42  C   VAL A   6       5.181  -4.507  23.235  0.00  0.00    +0.234 C 
ATOM     43  O   VAL A   6       4.104  -3.930  23.387  0.00  0.00    -0.274 OA
ATOM     44  N   GLY A   7       5.956  -4.344  22.116  0.00  0.00    -0.305 N 
ATOM     45  H   GLY A   7       6.840  -4.837  22.017  0.00  0.00    +0.149 HD
BRANCH  44  46
ATOM     46  CA  GLY A   7       5.524  -3.556  20.978  0.00  0.00    +0.200 C 
BRANCH  46  47
ATOM     47  C   GLY A   7       6.117  -2.154  21.096  0.00  0.00    +0.231 C 
ATOM     48  N   ALA A   8       5.918  -1.354  19.997  0.00  0.00    -0.305 N 
ATOM     49  H   ALA A   8       5.357  -1.682  19.214  0.00  0.00    +0.149 HD
ATOM     50  O   GLY A   7       6.707  -1.770  22.105  0.00  0.00    -0.274 OA
BRANCH  48  51
ATOM     51  CA  ALA A   8       6.389   0.022  19.939  0.00  0.00    +0.133 C 
ATOM     52  CB  ALA A   8       7.836   0.107  19.476  0.00  0.00    +0.035 C 
BRANCH  51  53
ATOM     53  C   ALA A   8       5.502   0.790  18.970  0.00  0.00    +0.245 C 
ATOM     54  O   ALA A   8       4.518   1.442  19.320  0.00  0.00    -0.299 OA
ENDBRANCH  51  53
ENDBRANCH  48  51
ENDBRANCH  46  47
ENDBRANCH  44  46
ENDBRANCH  41  42
BRANCH  41  55
ATOM     55  CB  VAL A   6       4.662  -5.840  25.357  0.00  0.00    +0.012 C 
ATOM     56  CG2 VAL A   6       5.227  -5.740  26.781  0.00  0.00    +0.009 C 
ATOM     57  CG1 VAL A   6       4.061  -7.240  25.179  0.00  0.00    +0.009 C 
ENDBRANCH  41  55
ENDBRANCH  38  41
ENDBRANCH  35  37
ENDBRANCH  33  35
ENDBRANCH   1  31
BRANCH   1  58
ATOM     58  CB  GLN A   4      10.369   0.276  23.172  0.00  0.00    +0.041 C 
BRANCH  58  59
ATOM     59  CG  GLN A   4       9.960   1.310  22.123  0.00  0.00    +0.098 C 
BRANCH  59  60
ATOM     60  CD  GLN A   4       9.691   2.682  22.705  0.00  0.00    +0.211 C 
ATOM     61  OE1 GLN A   4      10.487   3.259  23.438  0.00  0.00    -0.276 OA
ATOM     62  NE2 GLN A   4       8.472   3.228  22.442  0.00  0.00    -0.329 N 
ATOM     63 HE21 GLN A   4       7.798   2.830  21.804  0.00  0.00    +0.145 HD
ATOM     64 HE22 GLN A   4       8.290   4.149  22.820  0.00  0.00    +0.145 HD
ENDBRANCH  59  60
ENDBRANCH  58  59
ENDBRANCH   1  58
TORSDOF 25
ENDMDL
MODEL 8
REMARK VINA RESULT:      -6.3      2.327      6.694
REMARK  Name = TVLQAVGA-mmff94.pdb
REMARK  34 active torsions:
REMARK  status: ('A' for Active; 'I' for Inactive)
REMARK    1  A    between atoms: _1  and  _2
REMARK    2  A    between atoms: _2  and  _3
REMARK    3  A    between atoms: _2  and  _5
REMARK    4  A    between atoms: _5  and  _6
REMARK    5  A    between atoms: _5  and  _7
REMARK    6  A    between atoms: _15  and  _16
REMARK    7  A    between atoms: _16  and  _17
REMARK    8  A    between atoms: _16  and  _19
REMARK    9  A    between atoms: _19  and  _20
REMARK   10  A    between atoms: _19  and  _21
REMARK   11  A    between atoms: _31  and  _32
REMARK   12  A    between atoms: _32  and  _33
REMARK   13  A    between atoms: _32  and  _35
REMARK   14  A    between atoms: _35  and  _36
REMARK   15  A    between atoms: _36  and  _37
REMARK   16  A    between atoms: _36  and  _38
REMARK   17  A    between atoms: _50  and  _51
REMARK   18  A    between atoms: _51  and  _52
REMARK   19  A    between atoms: _51  and  _54
REMARK   20  A    between atoms: _54  and  _55
REMARK   21  A    between atoms: _55  and  _56
REMARK   22  A    between atoms: _67  and  _68
REMARK   23  A    between atoms: _68  and  _69
REMARK   24  A    between atoms: _68  and  _71
REMARK   25  A    between atoms: _77  and  _78
REMARK   26  A    between atoms: _78  and  _79
REMARK   27  A    between atoms: _78  and  _81
REMARK   28  A    between atoms: _81  and  _82
REMARK   29  A    between atoms: _81  and  _83
REMARK   30  A    between atoms: _93  and  _94
REMARK   31  A    between atoms: _94  and  _95
REMARK   32  A    between atoms: _100  and  _101
REMARK   33  A    between atoms: _101  and  _102
REMARK   34  A    between atoms: _101  and  _104
REMARK                            x       y       z     vdW  Elec       q    Type
REMARK                         _______ _______ _______ _____ _____    ______ ____
ROOT
ATOM      1  CA  GLN A   4       6.698  -1.575  24.492  0.00  0.00    +0.159 C 
ENDROOT
BRANCH   1   4
ATOM      2  C   LEU A   3       7.055  -0.783  22.159  0.00  0.00    +0.234 C 
ATOM      3  O   LEU A   3       7.708  -1.780  21.850  0.00  0.00    -0.274 OA
ATOM      4  N   GLN A   4       6.517  -0.608  23.411  0.00  0.00    -0.302 N 
ATOM      5  H   GLN A   4       6.024   0.250  23.646  0.00  0.00    +0.150 HD
BRANCH   2   6
ATOM      6  CA  LEU A   3       6.753   0.347  21.153  0.00  0.00    +0.159 C 
BRANCH   6   9
ATOM      7  C   VAL A   2       8.155   2.206  22.036  0.00  0.00    +0.234 C 
ATOM      8  O   VAL A   2       9.212   1.694  21.665  0.00  0.00    -0.274 OA
ATOM      9  N   LEU A   3       6.933   1.604  21.875  0.00  0.00    -0.302 N 
ATOM     10  H   LEU A   3       6.083   2.121  22.086  0.00  0.00    +0.150 HD
BRANCH   7  11
ATOM     11  CA  VAL A   2       8.120   3.590  22.714  0.00  0.00    +0.161 C 
BRANCH  11  13
ATOM     12  C   THR A   1       5.989   4.874  22.785  0.00  0.00    +0.233 C 
ATOM     13  N   VAL A   2       6.725   3.765  23.122  0.00  0.00    -0.302 N 
ATOM     14  H   VAL A   2       6.264   2.937  23.489  0.00  0.00    +0.150 HD
ATOM     15  O   THR A   1       6.470   5.858  22.228  0.00  0.00    -0.274 OA
BRANCH  12  16
ATOM     16  CA  THR A   1       4.510   4.807  23.195  0.00  0.00    +0.166 C 
BRANCH  16  17
ATOM     17  N   THR A   1       3.657   5.050  21.994  0.00  0.00    -0.318 NA
ATOM     18  H1  THR A   1       3.311   4.146  21.667  0.00  0.00    +0.119 HD
ATOM     19  H2  THR A   1       2.813   5.531  22.324  0.00  0.00    +0.119 HD
ENDBRANCH  16  17
BRANCH  16  20
ATOM     20  CB  THR A   1       4.181   3.418  23.775  0.00  0.00    +0.137 C 
ATOM     21  CG2 THR A   1       3.571   3.487  25.168  0.00  0.00    +0.040 C 
BRANCH  20  22
ATOM     22  OG1 THR A   1       3.238   2.770  22.910  0.00  0.00    -0.390 OA
ATOM     23  HG1 THR A   1       2.388   2.813  23.396  0.00  0.00    +0.210 HD
ENDBRANCH  20  22
ENDBRANCH  16  20
ENDBRANCH  12  16
ENDBRANCH  11  13
BRANCH  11  24
ATOM     24  CB  VAL A   2       9.076   3.648  23.927  0.00  0.00    +0.012 C 
ATOM     25  CG2 VAL A   2       8.303   3.635  25.253  0.00  0.00    +0.009 C 
ATOM     26  CG1 VAL A   2       9.978   4.886  23.893  0.00  0.00    +0.009 C 
ENDBRANCH  11  24
ENDBRANCH   7  11
ENDBRANCH   6   9
BRANCH   6  27
ATOM     27  CB  LEU A   3       7.708   0.236  19.954  0.00  0.00    +0.034 C 
BRANCH  27  28
ATOM     28  CG  LEU A   3       7.023   0.037  18.588  0.00  0.00    -0.015 C 
ATOM     29  CD2 LEU A   3       6.021  -1.118  18.676  0.00  0.00    +0.007 C 
ATOM     30  CD1 LEU A   3       6.302   1.300  18.113  0.00  0.00    +0.007 C 
ENDBRANCH  27  28
ENDBRANCH   6  27
ENDBRANCH   2   6
ENDBRANCH   1   4
BRANCH   1  31
ATOM     31  C   GLN A   4       5.508  -1.382  25.450  0.00  0.00    +0.234 C 
ATOM     32  O   GLN A   4       5.452  -0.432  26.232  0.00  0.00    -0.274 OA
ATOM     33  N   ALA A   5       4.559  -2.370  25.409  0.00  0.00    -0.303 N 
ATOM     34  H   ALA A   5       4.604  -3.116  24.718  0.00  0.00    +0.149 HD
BRANCH  33  35
ATOM     35  CA  ALA A   5       3.442  -2.431  26.344  0.00  0.00    +0.156 C 
ATOM     36  CB  ALA A   5       2.251  -3.176  25.761  0.00  0.00    +0.038 C 
BRANCH  35  37
ATOM     37  C   ALA A   5       3.947  -3.142  27.609  0.00  0.00    +0.234 C 
ATOM     38  N   VAL A   6       4.461  -4.396  27.400  0.00  0.00    -0.302 N 
ATOM     39  H   VAL A   6       4.552  -4.766  26.457  0.00  0.00    +0.150 HD
ATOM     40  O   ALA A   5       3.893  -2.610  28.717  0.00  0.00    -0.274 OA
BRANCH  38  41
ATOM     41  CA  VAL A   6       4.984  -5.244  28.475  0.00  0.00    +0.161 C 
BRANCH  41  42
ATOM     42  C   VAL A   6       6.382  -5.683  27.982  0.00  0.00    +0.234 C 
ATOM     43  O   VAL A   6       7.073  -6.483  28.613  0.00  0.00    -0.274 OA
ATOM     44  N   GLY A   7       6.808  -5.090  26.823  0.00  0.00    -0.305 N 
ATOM     45  H   GLY A   7       6.216  -4.430  26.325  0.00  0.00    +0.149 HD
BRANCH  44  46
ATOM     46  CA  GLY A   7       8.147  -5.280  26.298  0.00  0.00    +0.200 C 
BRANCH  46  47
ATOM     47  C   GLY A   7       8.129  -5.011  24.795  0.00  0.00    +0.231 C 
ATOM     48  N   ALA A   8       6.909  -5.200  24.194  0.00  0.00    -0.305 N 
ATOM     49  H   ALA A   8       6.090  -5.435  24.750  0.00  0.00    +0.149 HD
ATOM     50  O   GLY A   7       9.127  -4.635  24.181  0.00  0.00    -0.274 OA
BRANCH  48  51
ATOM     51  CA  ALA A   8       6.695  -4.966  22.774  0.00  0.00    +0.133 C 
ATOM     52  CB  ALA A   8       6.773  -6.254  21.969  0.00  0.00    +0.035 C 
BRANCH  51  53
ATOM     53  C   ALA A   8       5.320  -4.340  22.594  0.00  0.00    +0.245 C 
ATOM     54  O   ALA A   8       4.272  -4.986  22.598  0.00  0.00    -0.299 OA
ENDBRANCH  51  53
ENDBRANCH  48  51
ENDBRANCH  46  47
ENDBRANCH  44  46
ENDBRANCH  41  42
BRANCH  41  55
ATOM     55  CB  VAL A   6       4.066  -6.468  28.739  0.00  0.00    +0.012 C 
ATOM     56  CG2 VAL A   6       3.095  -6.723  27.578  0.00  0.00    +0.009 C 
ATOM     57  CG1 VAL A   6       3.244  -6.323  30.027  0.00  0.00    +0.009 C 
ENDBRANCH  41  55
ENDBRANCH  38  41
ENDBRANCH  35  37
ENDBRANCH  33  35
ENDBRANCH   1  31
BRANCH   1  58
ATOM     58  CB  GLN A   4       8.034  -1.330  25.213  0.00  0.00    +0.041 C 
BRANCH  58  59
ATOM     59  CG  GLN A   4       8.638   0.047  24.943  0.00  0.00    +0.098 C 
BRANCH  59  60
ATOM     60  CD  GLN A   4      10.068  -0.010  24.448  0.00  0.00    +0.211 C 
ATOM     61  OE1 GLN A   4      10.982   0.601  24.991  0.00  0.00    -0.276 OA
ATOM     62  NE2 GLN A   4      10.291  -0.716  23.306  0.00  0.00    -0.329 N 
ATOM     63 HE21 GLN A   4       9.596  -1.284  22.846  0.00  0.00    +0.145 HD
ATOM     64 HE22 GLN A   4      11.247  -0.766  22.976  0.00  0.00    +0.145 HD
ENDBRANCH  59  60
ENDBRANCH  58  59
ENDBRANCH   1  58
TORSDOF 25
ENDMDL
MODEL 9
REMARK VINA RESULT:      -6.3      2.723      7.782
REMARK  Name = TVLQAVGA-mmff94.pdb
REMARK  34 active torsions:
REMARK  status: ('A' for Active; 'I' for Inactive)
REMARK    1  A    between atoms: _1  and  _2
REMARK    2  A    between atoms: _2  and  _3
REMARK    3  A    between atoms: _2  and  _5
REMARK    4  A    between atoms: _5  and  _6
REMARK    5  A    between atoms: _5  and  _7
REMARK    6  A    between atoms: _15  and  _16
REMARK    7  A    between atoms: _16  and  _17
REMARK    8  A    between atoms: _16  and  _19
REMARK    9  A    between atoms: _19  and  _20
REMARK   10  A    between atoms: _19  and  _21
REMARK   11  A    between atoms: _31  and  _32
REMARK   12  A    between atoms: _32  and  _33
REMARK   13  A    between atoms: _32  and  _35
REMARK   14  A    between atoms: _35  and  _36
REMARK   15  A    between atoms: _36  and  _37
REMARK   16  A    between atoms: _36  and  _38
REMARK   17  A    between atoms: _50  and  _51
REMARK   18  A    between atoms: _51  and  _52
REMARK   19  A    between atoms: _51  and  _54
REMARK   20  A    between atoms: _54  and  _55
REMARK   21  A    between atoms: _55  and  _56
REMARK   22  A    between atoms: _67  and  _68
REMARK   23  A    between atoms: _68  and  _69
REMARK   24  A    between atoms: _68  and  _71
REMARK   25  A    between atoms: _77  and  _78
REMARK   26  A    between atoms: _78  and  _79
REMARK   27  A    between atoms: _78  and  _81
REMARK   28  A    between atoms: _81  and  _82
REMARK   29  A    between atoms: _81  and  _83
REMARK   30  A    between atoms: _93  and  _94
REMARK   31  A    between atoms: _94  and  _95
REMARK   32  A    between atoms: _100  and  _101
REMARK   33  A    between atoms: _101  and  _102
REMARK   34  A    between atoms: _101  and  _104
REMARK                            x       y       z     vdW  Elec       q    Type
REMARK                         _______ _______ _______ _____ _____    ______ ____
ROOT
ATOM      1  CA  GLN A   4       6.441  -1.084  22.123  0.00  0.00    +0.159 C 
ENDROOT
BRANCH   1   4
ATOM      2  C   LEU A   3       7.147   0.742  23.659  0.00  0.00    +0.234 C 
ATOM      3  O   LEU A   3       6.379   1.559  23.149  0.00  0.00    -0.274 OA
ATOM      4  N   GLN A   4       7.232  -0.561  23.235  0.00  0.00    -0.302 N 
ATOM      5  H   GLN A   4       7.912  -1.196  23.647  0.00  0.00    +0.150 HD
BRANCH   2   6
ATOM      6  CA  LEU A   3       8.061   1.105  24.848  0.00  0.00    +0.159 C 
BRANCH   6   9
ATOM      7  C   VAL A   2       6.972   2.228  26.785  0.00  0.00    +0.234 C 
ATOM      8  O   VAL A   2       7.516   3.310  26.569  0.00  0.00    -0.274 OA
ATOM      9  N   LEU A   3       7.214   1.103  26.038  0.00  0.00    -0.302 N 
ATOM     10  H   LEU A   3       6.648   0.270  26.179  0.00  0.00    +0.150 HD
BRANCH   7  11
ATOM     11  CA  VAL A   2       5.949   2.049  27.926  0.00  0.00    +0.161 C 
BRANCH  11  13
ATOM     12  C   THR A   1       4.533   0.015  28.142  0.00  0.00    +0.233 C 
ATOM     13  N   VAL A   2       5.769   0.601  28.035  0.00  0.00    -0.302 N 
ATOM     14  H   VAL A   2       6.587   0.035  27.822  0.00  0.00    +0.150 HD
ATOM     15  O   THR A   1       3.493   0.655  28.280  0.00  0.00    -0.274 OA
BRANCH  12  16
ATOM     16  CA  THR A   1       4.548  -1.521  28.112  0.00  0.00    +0.166 C 
BRANCH  16  17
ATOM     17  N   THR A   1       3.414  -2.039  28.933  0.00  0.00    -0.318 NA
ATOM     18  H1  THR A   1       2.803  -2.579  28.316  0.00  0.00    +0.119 HD
ATOM     19  H2  THR A   1       3.807  -2.744  29.566  0.00  0.00    +0.119 HD
ENDBRANCH  16  17
BRANCH  16  20
ATOM     20  CB  THR A   1       4.397  -2.026  26.664  0.00  0.00    +0.137 C 
ATOM     21  CG2 THR A   1       3.015  -2.598  26.377  0.00  0.00    +0.040 C 
BRANCH  20  22
ATOM     22  OG1 THR A   1       4.615  -0.927  25.768  0.00  0.00    -0.390 OA
ATOM     23  HG1 THR A   1       4.304  -1.253  24.898  0.00  0.00    +0.210 HD
ENDBRANCH  20  22
ENDBRANCH  16  20
ENDBRANCH  12  16
ENDBRANCH  11  13
BRANCH  11  24
ATOM     24  CB  VAL A   2       6.470   2.656  29.249  0.00  0.00    +0.012 C 
ATOM     25  CG2 VAL A   2       7.210   1.612  30.094  0.00  0.00    +0.009 C 
ATOM     26  CG1 VAL A   2       5.340   3.262  30.089  0.00  0.00    +0.009 C 
ENDBRANCH  11  24
ENDBRANCH   7  11
ENDBRANCH   6   9
BRANCH   6  27
ATOM     27  CB  LEU A   3       9.197   0.075  24.955  0.00  0.00    +0.034 C 
BRANCH  27  28
ATOM     28  CG  LEU A   3      10.494   0.452  24.213  0.00  0.00    -0.015 C 
ATOM     29  CD2 LEU A   3      10.565  -0.299  22.881  0.00  0.00    +0.007 C 
ATOM     30  CD1 LEU A   3      10.596   1.957  23.953  0.00  0.00    +0.007 C 
ENDBRANCH  27  28
ENDBRANCH   6  27
ENDBRANCH   2   6
ENDBRANCH   1   4
BRANCH   1  31
ATOM     31  C   GLN A   4       5.954  -2.480  22.555  0.00  0.00    +0.234 C 
ATOM     32  O   GLN A   4       5.279  -2.644  23.571  0.00  0.00    -0.274 OA
ATOM     33  N   ALA A   5       6.380  -3.517  21.767  0.00  0.00    -0.303 N 
ATOM     34  H   ALA A   5       6.894  -3.347  20.905  0.00  0.00    +0.149 HD
BRANCH  33  35
ATOM     35  CA  ALA A   5       6.141  -4.915  22.105  0.00  0.00    +0.156 C 
ATOM     36  CB  ALA A   5       6.171  -5.811  20.876  0.00  0.00    +0.038 C 
BRANCH  35  37
ATOM     37  C   ALA A   5       7.237  -5.335  23.097  0.00  0.00    +0.234 C 
ATOM     38  N   VAL A   6       7.033  -4.927  24.390  0.00  0.00    -0.302 N 
ATOM     39  H   VAL A   6       6.175  -4.447  24.650  0.00  0.00    +0.150 HD
ATOM     40  O   ALA A   5       8.215  -5.992  22.742  0.00  0.00    -0.274 OA
BRANCH  38  41
ATOM     41  CA  VAL A   6       7.964  -5.214  25.484  0.00  0.00    +0.161 C 
BRANCH  41  42
ATOM     42  C   VAL A   6       7.063  -5.658  26.659  0.00  0.00    +0.234 C 
ATOM     43  O   VAL A   6       7.509  -5.830  27.794  0.00  0.00    -0.274 OA
ATOM     44  N   GLY A   7       5.750  -5.885  26.338  0.00  0.00    -0.305 N 
ATOM     45  H   GLY A   7       5.411  -5.738  25.391  0.00  0.00    +0.149 HD
BRANCH  44  46
ATOM     46  CA  GLY A   7       4.802  -6.440  27.285  0.00  0.00    +0.200 C 
BRANCH  46  47
ATOM     47  C   GLY A   7       3.393  -6.298  26.712  0.00  0.00    +0.231 C 
ATOM     48  N   ALA A   8       3.331  -6.295  25.341  0.00  0.00    -0.305 N 
ATOM     49  H   ALA A   8       4.170  -6.446  24.785  0.00  0.00    +0.149 HD
ATOM     50  O   GLY A   7       2.396  -6.214  27.428  0.00  0.00    -0.274 OA
BRANCH  48  51
ATOM     51  CA  ALA A   8       2.072  -6.195  24.618  0.00  0.00    +0.133 C 
ATOM     52  CB  ALA A   8       2.244  -5.510  23.270  0.00  0.00    +0.035 C 
BRANCH  51  53
ATOM     53  C   ALA A   8       1.530  -7.601  24.404  0.00  0.00    +0.245 C 
ATOM     54  O   ALA A   8       2.147  -8.486  23.812  0.00  0.00    -0.299 OA
ENDBRANCH  51  53
ENDBRANCH  48  51
ENDBRANCH  46  47
ENDBRANCH  44  46
ENDBRANCH  41  42
BRANCH  41  55
ATOM     55  CB  VAL A   6       8.811  -3.968  25.860  0.00  0.00    +0.012 C 
ATOM     56  CG2 VAL A   6       7.939  -2.798  26.334  0.00  0.00    +0.009 C 
ATOM     57  CG1 VAL A   6       9.684  -3.475  24.698  0.00  0.00    +0.009 C 
ENDBRANCH  41  55
ENDBRANCH  38  41
ENDBRANCH  35  37
ENDBRANCH  33  35
ENDBRANCH   1  31
BRANCH   1  58
ATOM     58  CB  GLN A   4       7.296  -1.167  20.848  0.00  0.00    +0.041 C 
BRANCH  58  59
ATOM     59  CG  GLN A   4       7.175   0.059  19.942  0.00  0.00    +0.098 C 
BRANCH  59  60
ATOM     60  CD  GLN A   4       6.411  -0.212  18.664  0.00  0.00    +0.211 C 
ATOM     61  OE1 GLN A   4       6.393   0.575  17.724  0.00  0.00    -0.276 OA
ATOM     62  NE2 GLN A   4       5.664  -1.349  18.627  0.00  0.00    -0.329 N 
ATOM     63 HE21 GLN A   4       5.681  -2.061  19.342  0.00  0.00    +0.145 HD
ATOM     64 HE22 GLN A   4       5.159  -1.540  17.771  0.00  0.00    +0.145 HD
ENDBRANCH  59  60
ENDBRANCH  58  59
ENDBRANCH   1  58
TORSDOF 25
ENDMDL
MODEL 10
REMARK VINA RESULT:      -6.2      2.350      6.900
REMARK  Name = TVLQAVGA-mmff94.pdb
REMARK  34 active torsions:
REMARK  status: ('A' for Active; 'I' for Inactive)
REMARK    1  A    between atoms: _1  and  _2
REMARK    2  A    between atoms: _2  and  _3
REMARK    3  A    between atoms: _2  and  _5
REMARK    4  A    between atoms: _5  and  _6
REMARK    5  A    between atoms: _5  and  _7
REMARK    6  A    between atoms: _15  and  _16
REMARK    7  A    between atoms: _16  and  _17
REMARK    8  A    between atoms: _16  and  _19
REMARK    9  A    between atoms: _19  and  _20
REMARK   10  A    between atoms: _19  and  _21
REMARK   11  A    between atoms: _31  and  _32
REMARK   12  A    between atoms: _32  and  _33
REMARK   13  A    between atoms: _32  and  _35
REMARK   14  A    between atoms: _35  and  _36
REMARK   15  A    between atoms: _36  and  _37
REMARK   16  A    between atoms: _36  and  _38
REMARK   17  A    between atoms: _50  and  _51
REMARK   18  A    between atoms: _51  and  _52
REMARK   19  A    between atoms: _51  and  _54
REMARK   20  A    between atoms: _54  and  _55
REMARK   21  A    between atoms: _55  and  _56
REMARK   22  A    between atoms: _67  and  _68
REMARK   23  A    between atoms: _68  and  _69
REMARK   24  A    between atoms: _68  and  _71
REMARK   25  A    between atoms: _77  and  _78
REMARK   26  A    between atoms: _78  and  _79
REMARK   27  A    between atoms: _78  and  _81
REMARK   28  A    between atoms: _81  and  _82
REMARK   29  A    between atoms: _81  and  _83
REMARK   30  A    between atoms: _93  and  _94
REMARK   31  A    between atoms: _94  and  _95
REMARK   32  A    between atoms: _100  and  _101
REMARK   33  A    between atoms: _101  and  _102
REMARK   34  A    between atoms: _101  and  _104
REMARK                            x       y       z     vdW  Elec       q    Type
REMARK                         _______ _______ _______ _____ _____    ______ ____
ROOT
ATOM      1  CA  GLN A   4       7.594  -2.272  24.011  0.00  0.00    +0.159 C 
ENDROOT
BRANCH   1   4
ATOM      2  C   LEU A   3       7.848  -0.522  22.260  0.00  0.00    +0.234 C 
ATOM      3  O   LEU A   3       7.305  -1.213  21.396  0.00  0.00    -0.274 OA
ATOM      4  N   GLN A   4       8.017  -0.949  23.554  0.00  0.00    -0.302 N 
ATOM      5  H   GLN A   4       8.512  -0.372  24.229  0.00  0.00    +0.150 HD
BRANCH   2   6
ATOM      6  CA  LEU A   3       8.358   0.905  21.970  0.00  0.00    +0.159 C 
BRANCH   6   9
ATOM      7  C   VAL A   2       6.380   2.353  22.406  0.00  0.00    +0.234 C 
ATOM      8  O   VAL A   2       5.919   2.204  21.274  0.00  0.00    -0.274 OA
ATOM      9  N   LEU A   3       7.572   1.805  22.809  0.00  0.00    -0.302 N 
ATOM     10  H   LEU A   3       7.846   1.854  23.787  0.00  0.00    +0.150 HD
BRANCH   7  11
ATOM     11  CA  VAL A   2       5.638   3.173  23.481  0.00  0.00    +0.161 C 
BRANCH  11  13
ATOM     12  C   THR A   1       5.913   1.535  25.335  0.00  0.00    +0.233 C 
ATOM     13  N   VAL A   2       6.227   2.736  24.748  0.00  0.00    -0.302 N 
ATOM     14  H   VAL A   2       7.031   3.268  25.069  0.00  0.00    +0.150 HD
ATOM     15  O   THR A   1       5.029   0.791  24.917  0.00  0.00    -0.274 OA
BRANCH  12  16
ATOM     16  CA  THR A   1       6.734   1.204  26.590  0.00  0.00    +0.166 C 
BRANCH  16  17
ATOM     17  N   THR A   1       8.178   1.118  26.223  0.00  0.00    -0.318 NA
ATOM     18  H1  THR A   1       8.237   0.978  25.212  0.00  0.00    +0.119 HD
ATOM     19  H2  THR A   1       8.575   2.053  26.365  0.00  0.00    +0.119 HD
ENDBRANCH  16  17
BRANCH  16  20
ATOM     20  CB  THR A   1       6.548   2.304  27.653  0.00  0.00    +0.137 C 
ATOM     21  CG2 THR A   1       6.759   1.798  29.073  0.00  0.00    +0.040 C 
BRANCH  20  22
ATOM     22  OG1 THR A   1       7.503   3.346  27.408  0.00  0.00    -0.390 OA
ATOM     23  HG1 THR A   1       7.180   4.106  27.937  0.00  0.00    +0.210 HD
ENDBRANCH  20  22
ENDBRANCH  16  20
ENDBRANCH  12  16
ENDBRANCH  11  13
BRANCH  11  24
ATOM     24  CB  VAL A   2       5.827   4.690  23.262  0.00  0.00    +0.012 C 
ATOM     25  CG2 VAL A   2       6.754   5.300  24.322  0.00  0.00    +0.009 C 
ATOM     26  CG1 VAL A   2       4.494   5.446  23.278  0.00  0.00    +0.009 C 
ENDBRANCH  11  24
ENDBRANCH   7  11
ENDBRANCH   6   9
BRANCH   6  27
ATOM     27  CB  LEU A   3       9.858   0.989  22.293  0.00  0.00    +0.034 C 
BRANCH  27  28
ATOM     28  CG  LEU A   3      10.207   1.728  23.599  0.00  0.00    -0.015 C 
ATOM     29  CD2 LEU A   3      11.156   0.870  24.441  0.00  0.00    +0.007 C 
ATOM     30  CD1 LEU A   3      10.853   3.091  23.338  0.00  0.00    +0.007 C 
ENDBRANCH  27  28
ENDBRANCH   6  27
ENDBRANCH   2   6
ENDBRANCH   1   4
BRANCH   1  31
ATOM     31  C   GLN A   4       7.272  -2.129  25.511  0.00  0.00    +0.234 C 
ATOM     32  O   GLN A   4       8.154  -1.926  26.346  0.00  0.00    -0.274 OA
ATOM     33  N   ALA A   5       5.955  -2.307  25.845  0.00  0.00    -0.303 N 
ATOM     34  H   ALA A   5       5.241  -2.423  25.130  0.00  0.00    +0.149 HD
BRANCH  33  35
ATOM     35  CA  ALA A   5       5.491  -2.354  27.226  0.00  0.00    +0.156 C 
ATOM     36  CB  ALA A   5       4.066  -1.840  27.366  0.00  0.00    +0.038 C 
BRANCH  35  37
ATOM     37  C   ALA A   5       5.576  -3.819  27.684  0.00  0.00    +0.234 C 
ATOM     38  N   VAL A   6       4.374  -4.476  27.743  0.00  0.00    -0.302 N 
ATOM     39  H   VAL A   6       3.521  -4.019  27.431  0.00  0.00    +0.150 HD
ATOM     40  O   ALA A   5       6.650  -4.348  27.967  0.00  0.00    -0.274 OA
BRANCH  38  41
ATOM     41  CA  VAL A   6       4.237  -5.872  28.166  0.00  0.00    +0.161 C 
BRANCH  41  42
ATOM     42  C   VAL A   6       4.399  -6.692  26.865  0.00  0.00    +0.234 C 
ATOM     43  O   VAL A   6       5.497  -6.863  26.335  0.00  0.00    -0.274 OA
ATOM     44  N   GLY A   7       3.235  -7.175  26.327  0.00  0.00    -0.305 N 
ATOM     45  H   GLY A   7       2.342  -7.015  26.786  0.00  0.00    +0.149 HD
BRANCH  44  46
ATOM     46  CA  GLY A   7       3.190  -7.841  25.040  0.00  0.00    +0.200 C 
BRANCH  46  47
ATOM     47  C   GLY A   7       3.197  -6.783  23.938  0.00  0.00    +0.231 C 
ATOM     48  N   ALA A   8       4.446  -6.440  23.482  0.00  0.00    -0.305 N 
ATOM     49  H   ALA A   8       5.273  -6.923  23.827  0.00  0.00    +0.149 HD
ATOM     50  O   GLY A   7       2.162  -6.296  23.485  0.00  0.00    -0.274 OA
BRANCH  48  51
ATOM     51  CA  ALA A   8       4.647  -5.470  22.416  0.00  0.00    +0.133 C 
ATOM     52  CB  ALA A   8       4.803  -4.057  22.958  0.00  0.00    +0.035 C 
BRANCH  51  53
ATOM     53  C   ALA A   8       5.902  -5.857  21.647  0.00  0.00    +0.245 C 
ATOM     54  O   ALA A   8       6.009  -5.757  20.425  0.00  0.00    -0.299 OA
ENDBRANCH  51  53
ENDBRANCH  48  51
ENDBRANCH  46  47
ENDBRANCH  44  46
ENDBRANCH  41  42
BRANCH  41  55
ATOM     55  CB  VAL A   6       2.862  -6.138  28.836  0.00  0.00    +0.012 C 
ATOM     56  CG2 VAL A   6       2.239  -4.855  29.403  0.00  0.00    +0.009 C 
ATOM     57  CG1 VAL A   6       2.945  -7.171  29.967  0.00  0.00    +0.009 C 
ENDBRANCH  41  55
ENDBRANCH  38  41
ENDBRANCH  35  37
ENDBRANCH  33  35
ENDBRANCH   1  31
BRANCH   1  58
ATOM     58  CB  GLN A   4       8.711  -3.302  23.781  0.00  0.00    +0.041 C 
BRANCH  58  59
ATOM     59  CG  GLN A   4       8.331  -4.727  24.183  0.00  0.00    +0.098 C 
BRANCH  59  60
ATOM     60  CD  GLN A   4       9.154  -5.267  25.333  0.00  0.00    +0.211 C 
ATOM     61  OE1 GLN A   4      10.380  -5.283  25.319  0.00  0.00    -0.276 OA
ATOM     62  NE2 GLN A   4       8.467  -5.818  26.371  0.00  0.00    -0.329 N 
ATOM     63 HE21 GLN A   4       7.463  -5.786  26.467  0.00  0.00    +0.145 HD
ATOM     64 HE22 GLN A   4       9.013  -6.172  27.147  0.00  0.00    +0.145 HD
ENDBRANCH  59  60
ENDBRANCH  58  59
ENDBRANCH   1  58
TORSDOF 25
ENDMDL
MODEL 11
REMARK VINA RESULT:      -6.2      2.611      6.669
REMARK  Name = TVLQAVGA-mmff94.pdb
REMARK  34 active torsions:
REMARK  status: ('A' for Active; 'I' for Inactive)
REMARK    1  A    between atoms: _1  and  _2
REMARK    2  A    between atoms: _2  and  _3
REMARK    3  A    between atoms: _2  and  _5
REMARK    4  A    between atoms: _5  and  _6
REMARK    5  A    between atoms: _5  and  _7
REMARK    6  A    between atoms: _15  and  _16
REMARK    7  A    between atoms: _16  and  _17
REMARK    8  A    between atoms: _16  and  _19
REMARK    9  A    between atoms: _19  and  _20
REMARK   10  A    between atoms: _19  and  _21
REMARK   11  A    between atoms: _31  and  _32
REMARK   12  A    between atoms: _32  and  _33
REMARK   13  A    between atoms: _32  and  _35
REMARK   14  A    between atoms: _35  and  _36
REMARK   15  A    between atoms: _36  and  _37
REMARK   16  A    between atoms: _36  and  _38
REMARK   17  A    between atoms: _50  and  _51
REMARK   18  A    between atoms: _51  and  _52
REMARK   19  A    between atoms: _51  and  _54
REMARK   20  A    between atoms: _54  and  _55
REMARK   21  A    between atoms: _55  and  _56
REMARK   22  A    between atoms: _67  and  _68
REMARK   23  A    between atoms: _68  and  _69
REMARK   24  A    between atoms: _68  and  _71
REMARK   25  A    between atoms: _77  and  _78
REMARK   26  A    between atoms: _78  and  _79
REMARK   27  A    between atoms: _78  and  _81
REMARK   28  A    between atoms: _81  and  _82
REMARK   29  A    between atoms: _81  and  _83
REMARK   30  A    between atoms: _93  and  _94
REMARK   31  A    between atoms: _94  and  _95
REMARK   32  A    between atoms: _100  and  _101
REMARK   33  A    between atoms: _101  and  _102
REMARK   34  A    between atoms: _101  and  _104
REMARK                            x       y       z     vdW  Elec       q    Type
REMARK                         _______ _______ _______ _____ _____    ______ ____
ROOT
ATOM      1  CA  GLN A   4       6.447  -0.742  27.101  0.00  0.00    +0.159 C 
ENDROOT
BRANCH   1   4
ATOM      2  C   LEU A   3       6.552   1.568  28.022  0.00  0.00    +0.234 C 
ATOM      3  O   LEU A   3       6.053   1.234  29.097  0.00  0.00    -0.274 OA
ATOM      4  N   GLN A   4       6.790   0.676  27.006  0.00  0.00    -0.302 N 
ATOM      5  H   GLN A   4       7.159   0.995  26.113  0.00  0.00    +0.150 HD
BRANCH   2   6
ATOM      6  CA  LEU A   3       6.985   3.021  27.732  0.00  0.00    +0.159 C 
BRANCH   6   9
ATOM      7  C   VAL A   2       8.003   4.105  25.736  0.00  0.00    +0.234 C 
ATOM      8  O   VAL A   2       8.394   5.088  26.367  0.00  0.00    -0.274 OA
ATOM      9  N   LEU A   3       7.275   3.090  26.303  0.00  0.00    -0.302 N 
ATOM     10  H   LEU A   3       7.084   2.245  25.770  0.00  0.00    +0.150 HD
BRANCH   7  11
ATOM     11  CA  VAL A   2       8.312   3.932  24.235  0.00  0.00    +0.161 C 
BRANCH  11  13
ATOM     12  C   THR A   1      10.188   2.395  23.678  0.00  0.00    +0.233 C 
ATOM     13  N   VAL A   2       8.910   2.600  24.134  0.00  0.00    -0.302 N 
ATOM     14  H   VAL A   2       8.411   1.853  24.610  0.00  0.00    +0.150 HD
ATOM     15  O   THR A   1      10.886   3.288  23.203  0.00  0.00    -0.274 OA
BRANCH  12  16
ATOM     16  CA  THR A   1      10.675   0.941  23.773  0.00  0.00    +0.166 C 
BRANCH  16  17
ATOM     17  N   THR A   1      10.689   0.521  25.205  0.00  0.00    -0.318 NA
ATOM     18  H1  THR A   1      10.199  -0.374  25.273  0.00  0.00    +0.119 HD
ATOM     19  H2  THR A   1      11.661   0.286  25.434  0.00  0.00    +0.119 HD
ENDBRANCH  16  17
BRANCH  16  20
ATOM     20  CB  THR A   1       9.733   0.012  22.982  0.00  0.00    +0.137 C 
ATOM     21  CG2 THR A   1      10.327  -1.368  22.740  0.00  0.00    +0.040 C 
BRANCH  20  22
ATOM     22  OG1 THR A   1       8.518  -0.154  23.728  0.00  0.00    -0.390 OA
ATOM     23  HG1 THR A   1       8.266  -1.089  23.582  0.00  0.00    +0.210 HD
ENDBRANCH  20  22
ENDBRANCH  16  20
ENDBRANCH  12  16
ENDBRANCH  11  13
BRANCH  11  24
ATOM     24  CB  VAL A   2       7.030   4.044  23.379  0.00  0.00    +0.012 C 
ATOM     25  CG2 VAL A   2       6.728   2.730  22.646  0.00  0.00    +0.009 C 
ATOM     26  CG1 VAL A   2       7.120   5.176  22.350  0.00  0.00    +0.009 C 
ENDBRANCH  11  24
ENDBRANCH   7  11
ENDBRANCH   6   9
BRANCH   6  27
ATOM     27  CB  LEU A   3       5.855   3.983  28.133  0.00  0.00    +0.034 C 
BRANCH  27  28
ATOM     28  CG  LEU A   3       4.662   4.034  27.159  0.00  0.00    -0.015 C 
ATOM     29  CD2 LEU A   3       3.369   3.698  27.907  0.00  0.00    +0.007 C 
ATOM     30  CD1 LEU A   3       4.520   5.403  26.489  0.00  0.00    +0.007 C 
ENDBRANCH  27  28
ENDBRANCH   6  27
ENDBRANCH   2   6
ENDBRANCH   1   4
BRANCH   1  31
ATOM     31  C   GLN A   4       7.690  -1.521  26.631  0.00  0.00    +0.234 C 
ATOM     32  O   GLN A   4       8.804  -0.999  26.587  0.00  0.00    -0.274 OA
ATOM     33  N   ALA A   5       7.450  -2.804  26.211  0.00  0.00    -0.303 N 
ATOM     34  H   ALA A   5       6.529  -3.226  26.305  0.00  0.00    +0.149 HD
BRANCH  33  35
ATOM     35  CA  ALA A   5       8.476  -3.638  25.597  0.00  0.00    +0.156 C 
ATOM     36  CB  ALA A   5       9.333  -4.344  26.637  0.00  0.00    +0.038 C 
BRANCH  35  37
ATOM     37  C   ALA A   5       7.755  -4.667  24.713  0.00  0.00    +0.234 C 
ATOM     38  N   VAL A   6       6.401  -4.754  24.915  0.00  0.00    -0.302 N 
ATOM     39  H   VAL A   6       5.934  -4.119  25.557  0.00  0.00    +0.150 HD
ATOM     40  O   ALA A   5       8.361  -5.350  23.888  0.00  0.00    -0.274 OA
BRANCH  38  41
ATOM     41  CA  VAL A   6       5.534  -5.680  24.183  0.00  0.00    +0.161 C 
BRANCH  41  42
ATOM     42  C   VAL A   6       4.995  -4.853  22.993  0.00  0.00    +0.234 C 
ATOM     43  O   VAL A   6       3.793  -4.802  22.727  0.00  0.00    -0.274 OA
ATOM     44  N   GLY A   7       5.947  -4.221  22.238  0.00  0.00    -0.305 N 
ATOM     45  H   GLY A   7       6.933  -4.284  22.480  0.00  0.00    +0.149 HD
BRANCH  44  46
ATOM     46  CA  GLY A   7       5.627  -3.522  21.008  0.00  0.00    +0.200 C 
BRANCH  46  47
ATOM     47  C   GLY A   7       6.145  -2.089  21.107  0.00  0.00    +0.231 C 
ATOM     48  N   ALA A   8       5.939  -1.327  19.984  0.00  0.00    -0.305 N 
ATOM     49  H   ALA A   8       5.419  -1.701  19.193  0.00  0.00    +0.149 HD
ATOM     50  O   GLY A   7       6.685  -1.652  22.123  0.00  0.00    -0.274 OA
BRANCH  48  51
ATOM     51  CA  ALA A   8       6.341   0.070  19.904  0.00  0.00    +0.133 C 
ATOM     52  CB  ALA A   8       7.844   0.217  19.722  0.00  0.00    +0.035 C 
BRANCH  51  53
ATOM     53  C   ALA A   8       5.623   0.708  18.724  0.00  0.00    +0.245 C 
ATOM     54  O   ALA A   8       6.170   0.957  17.650  0.00  0.00    -0.299 OA
ENDBRANCH  51  53
ENDBRANCH  48  51
ENDBRANCH  46  47
ENDBRANCH  44  46
ENDBRANCH  41  42
BRANCH  41  55
ATOM     55  CB  VAL A   6       4.378  -6.211  25.074  0.00  0.00    +0.012 C 
ATOM     56  CG2 VAL A   6       4.831  -6.461  26.519  0.00  0.00    +0.009 C 
ATOM     57  CG1 VAL A   6       3.763  -7.509  24.533  0.00  0.00    +0.009 C 
ENDBRANCH  41  55
ENDBRANCH  38  41
ENDBRANCH  35  37
ENDBRANCH  33  35
ENDBRANCH   1  31
BRANCH   1  58
ATOM     58  CB  GLN A   4       5.228  -1.059  26.219  0.00  0.00    +0.041 C 
BRANCH  58  59
ATOM     59  CG  GLN A   4       4.025  -1.590  26.997  0.00  0.00    +0.098 C 
BRANCH  59  60
ATOM     60  CD  GLN A   4       3.059  -0.505  27.424  0.00  0.00    +0.211 C 
ATOM     61  OE1 GLN A   4       2.157  -0.098  26.700  0.00  0.00    -0.276 OA
ATOM     62  NE2 GLN A   4       3.284   0.071  28.637  0.00  0.00    -0.329 N 
ATOM     63 HE21 GLN A   4       3.971  -0.255  29.300  0.00  0.00    +0.145 HD
ATOM     64 HE22 GLN A   4       2.635   0.790  28.931  0.00  0.00    +0.145 HD
ENDBRANCH  59  60
ENDBRANCH  58  59
ENDBRANCH   1  58
TORSDOF 25
ENDMDL
MODEL 12
REMARK VINA RESULT:      -6.2      2.298      7.165
REMARK  Name = TVLQAVGA-mmff94.pdb
REMARK  34 active torsions:
REMARK  status: ('A' for Active; 'I' for Inactive)
REMARK    1  A    between atoms: _1  and  _2
REMARK    2  A    between atoms: _2  and  _3
REMARK    3  A    between atoms: _2  and  _5
REMARK    4  A    between atoms: _5  and  _6
REMARK    5  A    between atoms: _5  and  _7
REMARK    6  A    between atoms: _15  and  _16
REMARK    7  A    between atoms: _16  and  _17
REMARK    8  A    between atoms: _16  and  _19
REMARK    9  A    between atoms: _19  and  _20
REMARK   10  A    between atoms: _19  and  _21
REMARK   11  A    between atoms: _31  and  _32
REMARK   12  A    between atoms: _32  and  _33
REMARK   13  A    between atoms: _32  and  _35
REMARK   14  A    between atoms: _35  and  _36
REMARK   15  A    between atoms: _36  and  _37
REMARK   16  A    between atoms: _36  and  _38
REMARK   17  A    between atoms: _50  and  _51
REMARK   18  A    between atoms: _51  and  _52
REMARK   19  A    between atoms: _51  and  _54
REMARK   20  A    between atoms: _54  and  _55
REMARK   21  A    between atoms: _55  and  _56
REMARK   22  A    between atoms: _67  and  _68
REMARK   23  A    between atoms: _68  and  _69
REMARK   24  A    between atoms: _68  and  _71
REMARK   25  A    between atoms: _77  and  _78
REMARK   26  A    between atoms: _78  and  _79
REMARK   27  A    between atoms: _78  and  _81
REMARK   28  A    between atoms: _81  and  _82
REMARK   29  A    between atoms: _81  and  _83
REMARK   30  A    between atoms: _93  and  _94
REMARK   31  A    between atoms: _94  and  _95
REMARK   32  A    between atoms: _100  and  _101
REMARK   33  A    between atoms: _101  and  _102
REMARK   34  A    between atoms: _101  and  _104
REMARK                            x       y       z     vdW  Elec       q    Type
REMARK                         _______ _______ _______ _____ _____    ______ ____
ROOT
ATOM      1  CA  GLN A   4       5.935   0.463  27.338  0.00  0.00    +0.159 C 
ENDROOT
BRANCH   1   4
ATOM      2  C   LEU A   3       6.427   2.010  25.452  0.00  0.00    +0.234 C 
ATOM      3  O   LEU A   3       7.494   2.379  25.945  0.00  0.00    -0.274 OA
ATOM      4  N   GLN A   4       5.617   1.077  26.050  0.00  0.00    -0.302 N 
ATOM      5  H   GLN A   4       4.719   0.831  25.638  0.00  0.00    +0.150 HD
BRANCH   2   6
ATOM      6  CA  LEU A   3       5.922   2.542  24.094  0.00  0.00    +0.159 C 
BRANCH   6   9
ATOM      7  C   VAL A   2       7.211   1.973  22.041  0.00  0.00    +0.234 C 
ATOM      8  O   VAL A   2       7.541   3.140  21.826  0.00  0.00    -0.274 OA
ATOM      9  N   LEU A   3       6.394   1.604  23.080  0.00  0.00    -0.302 N 
ATOM     10  H   LEU A   3       6.252   0.618  23.286  0.00  0.00    +0.150 HD
BRANCH   7  11
ATOM     11  CA  VAL A   2       7.704   0.815  21.151  0.00  0.00    +0.161 C 
BRANCH  11  13
ATOM     12  C   THR A   1       9.064  -0.983  22.205  0.00  0.00    +0.233 C 
ATOM     13  N   VAL A   2       7.875  -0.310  22.072  0.00  0.00    -0.302 N 
ATOM     14  H   VAL A   2       7.135  -0.438  22.757  0.00  0.00    +0.150 HD
ATOM     15  O   THR A   1      10.037  -0.783  21.481  0.00  0.00    -0.274 OA
BRANCH  12  16
ATOM     16  CA  THR A   1       9.076  -2.044  23.316  0.00  0.00    +0.166 C 
BRANCH  16  17
ATOM     17  N   THR A   1      10.441  -2.642  23.408  0.00  0.00    -0.318 NA
ATOM     18  H1  THR A   1      10.607  -3.176  22.553  0.00  0.00    +0.119 HD
ATOM     19  H2  THR A   1      11.108  -1.865  23.346  0.00  0.00    +0.119 HD
ENDBRANCH  16  17
BRANCH  16  20
ATOM     20  CB  THR A   1       8.713  -1.401  24.669  0.00  0.00    +0.137 C 
ATOM     21  CG2 THR A   1       9.534  -0.155  24.972  0.00  0.00    +0.040 C 
BRANCH  20  22
ATOM     22  OG1 THR A   1       7.329  -1.025  24.642  0.00  0.00    -0.390 OA
ATOM     23  HG1 THR A   1       7.184  -0.562  25.494  0.00  0.00    +0.210 HD
ENDBRANCH  20  22
ENDBRANCH  16  20
ENDBRANCH  12  16
ENDBRANCH  11  13
BRANCH  11  24
ATOM     24  CB  VAL A   2       6.684   0.485  20.038  0.00  0.00    +0.012 C 
ATOM     25  CG2 VAL A   2       7.383   0.180  18.707  0.00  0.00    +0.009 C 
ATOM     26  CG1 VAL A   2       5.681   1.623  19.820  0.00  0.00    +0.009 C 
ENDBRANCH  11  24
ENDBRANCH   7  11
ENDBRANCH   6   9
BRANCH   6  27
ATOM     27  CB  LEU A   3       4.388   2.633  24.118  0.00  0.00    +0.034 C 
BRANCH  27  28
ATOM     28  CG  LEU A   3       3.797   3.905  23.478  0.00  0.00    -0.015 C 
ATOM     29  CD2 LEU A   3       4.911   4.930  23.243  0.00  0.00    +0.007 C 
ATOM     30  CD1 LEU A   3       3.091   3.611  22.152  0.00  0.00    +0.007 C 
ENDBRANCH  27  28
ENDBRANCH   6  27
ENDBRANCH   2   6
ENDBRANCH   1   4
BRANCH   1  31
ATOM     31  C   GLN A   4       5.345  -0.959  27.297  0.00  0.00    +0.234 C 
ATOM     32  O   GLN A   4       6.057  -1.952  27.145  0.00  0.00    -0.274 OA
ATOM     33  N   ALA A   5       3.978  -1.027  27.379  0.00  0.00    -0.303 N 
ATOM     34  H   ALA A   5       3.419  -0.196  27.555  0.00  0.00    +0.149 HD
BRANCH  33  35
ATOM     35  CA  ALA A   5       3.239  -2.272  27.210  0.00  0.00    +0.156 C 
ATOM     36  CB  ALA A   5       3.447  -2.875  25.829  0.00  0.00    +0.038 C 
BRANCH  35  37
ATOM     37  C   ALA A   5       3.731  -3.243  28.295  0.00  0.00    +0.234 C 
ATOM     38  N   VAL A   6       4.374  -4.358  27.823  0.00  0.00    -0.302 N 
ATOM     39  H   VAL A   6       4.557  -4.466  26.828  0.00  0.00    +0.150 HD
ATOM     40  O   ALA A   5       3.558  -3.018  29.492  0.00  0.00    -0.274 OA
BRANCH  38  41
ATOM     41  CA  VAL A   6       4.908  -5.411  28.692  0.00  0.00    +0.161 C 
BRANCH  41  42
ATOM     42  C   VAL A   6       6.328  -5.683  28.147  0.00  0.00    +0.234 C 
ATOM     43  O   VAL A   6       7.075  -6.516  28.663  0.00  0.00    -0.274 OA
ATOM     44  N   GLY A   7       6.708  -4.909  27.083  0.00  0.00    -0.305 N 
ATOM     45  H   GLY A   7       6.071  -4.227  26.680  0.00  0.00    +0.149 HD
BRANCH  44  46
ATOM     46  CA  GLY A   7       8.053  -4.935  26.541  0.00  0.00    +0.200 C 
BRANCH  46  47
ATOM     47  C   GLY A   7       7.970  -5.010  25.018  0.00  0.00    +0.231 C 
ATOM     48  N   ALA A   8       6.747  -4.667  24.495  0.00  0.00    -0.305 N 
ATOM     49  H   ALA A   8       6.001  -4.331  25.100  0.00  0.00    +0.149 HD
ATOM     50  O   GLY A   7       8.930  -5.332  24.320  0.00  0.00    -0.274 OA
BRANCH  48  51
ATOM     51  CA  ALA A   8       6.488  -4.654  23.063  0.00  0.00    +0.133 C 
ATOM     52  CB  ALA A   8       5.940  -5.986  22.573  0.00  0.00    +0.035 C 
BRANCH  51  53
ATOM     53  C   ALA A   8       5.480  -3.553  22.769  0.00  0.00    +0.245 C 
ATOM     54  O   ALA A   8       5.794  -2.429  22.378  0.00  0.00    -0.299 OA
ENDBRANCH  51  53
ENDBRANCH  48  51
ENDBRANCH  46  47
ENDBRANCH  44  46
ENDBRANCH  41  42
BRANCH  41  55
ATOM     55  CB  VAL A   6       4.030  -6.690  28.650  0.00  0.00    +0.012 C 
ATOM     56  CG2 VAL A   6       3.422  -6.929  27.261  0.00  0.00    +0.009 C 
ATOM     57  CG1 VAL A   6       2.887  -6.656  29.673  0.00  0.00    +0.009 C 
ENDBRANCH  41  55
ENDBRANCH  38  41
ENDBRANCH  35  37
ENDBRANCH  33  35
ENDBRANCH   1  31
BRANCH   1  58
ATOM     58  CB  GLN A   4       5.326   1.282  28.488  0.00  0.00    +0.041 C 
BRANCH  58  59
ATOM     59  CG  GLN A   4       6.108   1.185  29.797  0.00  0.00    +0.098 C 
BRANCH  59  60
ATOM     60  CD  GLN A   4       7.460   1.865  29.741  0.00  0.00    +0.211 C 
ATOM     61  OE1 GLN A   4       7.587   3.074  29.579  0.00  0.00    -0.276 OA
ATOM     62  NE2 GLN A   4       8.554   1.057  29.798  0.00  0.00    -0.329 N 
ATOM     63 HE21 GLN A   4       8.517   0.066  29.985  0.00  0.00    +0.145 HD
ATOM     64 HE22 GLN A   4       9.460   1.507  29.771  0.00  0.00    +0.145 HD
ENDBRANCH  59  60
ENDBRANCH  58  59
ENDBRANCH   1  58
TORSDOF 25
ENDMDL
MODEL 13
REMARK VINA RESULT:      -6.1      1.796      4.932
REMARK  Name = TVLQAVGA-mmff94.pdb
REMARK  34 active torsions:
REMARK  status: ('A' for Active; 'I' for Inactive)
REMARK    1  A    between atoms: _1  and  _2
REMARK    2  A    between atoms: _2  and  _3
REMARK    3  A    between atoms: _2  and  _5
REMARK    4  A    between atoms: _5  and  _6
REMARK    5  A    between atoms: _5  and  _7
REMARK    6  A    between atoms: _15  and  _16
REMARK    7  A    between atoms: _16  and  _17
REMARK    8  A    between atoms: _16  and  _19
REMARK    9  A    between atoms: _19  and  _20
REMARK   10  A    between atoms: _19  and  _21
REMARK   11  A    between atoms: _31  and  _32
REMARK   12  A    between atoms: _32  and  _33
REMARK   13  A    between atoms: _32  and  _35
REMARK   14  A    between atoms: _35  and  _36
REMARK   15  A    between atoms: _36  and  _37
REMARK   16  A    between atoms: _36  and  _38
REMARK   17  A    between atoms: _50  and  _51
REMARK   18  A    between atoms: _51  and  _52
REMARK   19  A    between atoms: _51  and  _54
REMARK   20  A    between atoms: _54  and  _55
REMARK   21  A    between atoms: _55  and  _56
REMARK   22  A    between atoms: _67  and  _68
REMARK   23  A    between atoms: _68  and  _69
REMARK   24  A    between atoms: _68  and  _71
REMARK   25  A    between atoms: _77  and  _78
REMARK   26  A    between atoms: _78  and  _79
REMARK   27  A    between atoms: _78  and  _81
REMARK   28  A    between atoms: _81  and  _82
REMARK   29  A    between atoms: _81  and  _83
REMARK   30  A    between atoms: _93  and  _94
REMARK   31  A    between atoms: _94  and  _95
REMARK   32  A    between atoms: _100  and  _101
REMARK   33  A    between atoms: _101  and  _102
REMARK   34  A    between atoms: _101  and  _104
REMARK                            x       y       z     vdW  Elec       q    Type
REMARK                         _______ _______ _______ _____ _____    ______ ____
ROOT
ATOM      1  CA  GLN A   4       3.991  -3.424  27.690  0.00  0.00    +0.159 C 
ENDROOT
BRANCH   1   4
ATOM      2  C   LEU A   3       3.876  -3.420  25.203  0.00  0.00    +0.234 C 
ATOM      3  O   LEU A   3       2.724  -2.985  25.190  0.00  0.00    -0.274 OA
ATOM      4  N   GLN A   4       4.570  -3.649  26.366  0.00  0.00    -0.302 N 
ATOM      5  H   GLN A   4       5.503  -4.054  26.341  0.00  0.00    +0.150 HD
BRANCH   2   6
ATOM      6  CA  LEU A   3       4.658  -3.717  23.906  0.00  0.00    +0.159 C 
BRANCH   6   9
ATOM      7  C   VAL A   2       7.109  -3.696  23.471  0.00  0.00    +0.234 C 
ATOM      8  O   VAL A   2       6.981  -3.348  22.297  0.00  0.00    -0.274 OA
ATOM      9  N   LEU A   3       6.045  -3.944  24.301  0.00  0.00    -0.302 N 
ATOM     10  H   LEU A   3       6.204  -4.108  25.292  0.00  0.00    +0.150 HD
BRANCH   7  11
ATOM     11  CA  VAL A   2       8.499  -3.876  24.115  0.00  0.00    +0.161 C 
BRANCH  11  13
ATOM     12  C   THR A   1       9.841  -1.818  23.720  0.00  0.00    +0.233 C 
ATOM     13  N   VAL A   2       8.923  -2.518  24.461  0.00  0.00    -0.302 N 
ATOM     14  H   VAL A   2       8.354  -2.041  25.156  0.00  0.00    +0.150 HD
ATOM     15  O   THR A   1      10.471  -2.310  22.787  0.00  0.00    -0.274 OA
BRANCH  12  16
ATOM     16  CA  THR A   1      10.052  -0.365  24.171  0.00  0.00    +0.166 C 
BRANCH  16  17
ATOM     17  N   THR A   1      10.511   0.449  23.007  0.00  0.00    -0.318 NA
ATOM     18  H1  THR A   1       9.708   0.975  22.657  0.00  0.00    +0.119 HD
ATOM     19  H2  THR A   1      11.134   1.173  23.381  0.00  0.00    +0.119 HD
ENDBRANCH  16  17
BRANCH  16  20
ATOM     20  CB  THR A   1       8.731   0.222  24.709  0.00  0.00    +0.137 C 
ATOM     21  CG2 THR A   1       8.774   1.736  24.860  0.00  0.00    +0.040 C 
BRANCH  20  22
ATOM     22  OG1 THR A   1       7.677  -0.102  23.791  0.00  0.00    -0.390 OA
ATOM     23  HG1 THR A   1       8.006  -0.888  23.307  0.00  0.00    +0.210 HD
ENDBRANCH  20  22
ENDBRANCH  16  20
ENDBRANCH  12  16
ENDBRANCH  11  13
BRANCH  11  24
ATOM     24  CB  VAL A   2       8.429  -4.783  25.364  0.00  0.00    +0.012 C 
ATOM     25  CG2 VAL A   2       8.404  -3.958  26.657  0.00  0.00    +0.009 C 
ATOM     26  CG1 VAL A   2       9.600  -5.769  25.428  0.00  0.00    +0.009 C 
ENDBRANCH  11  24
ENDBRANCH   7  11
ENDBRANCH   6   9
BRANCH   6  27
ATOM     27  CB  LEU A   3       4.053  -4.947  23.212  0.00  0.00    +0.034 C 
BRANCH  27  28
ATOM     28  CG  LEU A   3       3.044  -5.747  24.059  0.00  0.00    -0.015 C 
ATOM     29  CD2 LEU A   3       1.746  -5.941  23.270  0.00  0.00    +0.007 C 
ATOM     30  CD1 LEU A   3       3.593  -7.114  24.475  0.00  0.00    +0.007 C 
ENDBRANCH  27  28
ENDBRANCH   6  27
ENDBRANCH   2   6
ENDBRANCH   1   4
BRANCH   1  31
ATOM     31  C   GLN A   4       4.090  -1.910  27.954  0.00  0.00    +0.234 C 
ATOM     32  O   GLN A   4       3.217  -1.301  28.572  0.00  0.00    -0.274 OA
ATOM     33  N   ALA A   5       5.179  -1.290  27.399  0.00  0.00    -0.303 N 
ATOM     34  H   ALA A   5       5.911  -1.825  26.937  0.00  0.00    +0.149 HD
BRANCH  33  35
ATOM     35  CA  ALA A   5       5.361   0.156  27.421  0.00  0.00    +0.156 C 
ATOM     36  CB  ALA A   5       6.795   0.546  27.744  0.00  0.00    +0.038 C 
BRANCH  35  37
ATOM     37  C   ALA A   5       4.966   0.684  26.032  0.00  0.00    +0.234 C 
ATOM     38  N   VAL A   6       4.445   1.952  26.023  0.00  0.00    -0.302 N 
ATOM     39  H   VAL A   6       4.406   2.500  26.879  0.00  0.00    +0.150 HD
ATOM     40  O   ALA A   5       5.117   0.008  25.016  0.00  0.00    -0.274 OA
BRANCH  38  41
ATOM     41  CA  VAL A   6       3.997   2.632  24.805  0.00  0.00    +0.161 C 
BRANCH  41  42
ATOM     42  C   VAL A   6       5.298   3.129  24.134  0.00  0.00    +0.234 C 
ATOM     43  O   VAL A   6       5.963   4.051  24.606  0.00  0.00    -0.274 OA
ATOM     44  N   GLY A   7       5.632   2.501  22.963  0.00  0.00    -0.305 N 
ATOM     45  H   GLY A   7       5.061   1.743  22.595  0.00  0.00    +0.149 HD
BRANCH  44  46
ATOM     46  CA  GLY A   7       6.738   2.936  22.133  0.00  0.00    +0.200 C 
BRANCH  46  47
ATOM     47  C   GLY A   7       7.199   1.763  21.271  0.00  0.00    +0.231 C 
ATOM     48  N   ALA A   8       6.233   1.248  20.442  0.00  0.00    -0.305 N 
ATOM     49  H   ALA A   8       5.314   1.682  20.387  0.00  0.00    +0.149 HD
ATOM     50  O   GLY A   7       8.351   1.332  21.305  0.00  0.00    -0.274 OA
BRANCH  48  51
ATOM     51  CA  ALA A   8       6.496   0.145  19.529  0.00  0.00    +0.133 C 
ATOM     52  CB  ALA A   8       5.811  -1.137  19.977  0.00  0.00    +0.035 C 
BRANCH  51  53
ATOM     53  C   ALA A   8       5.986   0.535  18.149  0.00  0.00    +0.245 C 
ATOM     54  O   ALA A   8       5.722  -0.280  17.266  0.00  0.00    -0.299 OA
ENDBRANCH  51  53
ENDBRANCH  48  51
ENDBRANCH  46  47
ENDBRANCH  44  46
ENDBRANCH  41  42
BRANCH  41  55
ATOM     55  CB  VAL A   6       3.039   3.811  25.124  0.00  0.00    +0.012 C 
ATOM     56  CG2 VAL A   6       2.174   3.534  26.362  0.00  0.00    +0.009 C 
ATOM     57  CG1 VAL A   6       2.106   4.148  23.954  0.00  0.00    +0.009 C 
ENDBRANCH  41  55
ENDBRANCH  38  41
ENDBRANCH  35  37
ENDBRANCH  33  35
ENDBRANCH   1  31
BRANCH   1  58
ATOM     58  CB  GLN A   4       4.759  -4.223  28.755  0.00  0.00    +0.041 C 
BRANCH  58  59
ATOM     59  CG  GLN A   4       4.463  -5.722  28.735  0.00  0.00    +0.098 C 
BRANCH  59  60
ATOM     60  CD  GLN A   4       5.598  -6.552  28.173  0.00  0.00    +0.211 C 
ATOM     61  OE1 GLN A   4       5.872  -6.576  26.978  0.00  0.00    -0.276 OA
ATOM     62  NE2 GLN A   4       6.266  -7.348  29.051  0.00  0.00    -0.329 N 
ATOM     63 HE21 GLN A   4       6.126  -7.332  30.050  0.00  0.00    +0.145 HD
ATOM     64 HE22 GLN A   4       7.032  -7.898  28.682  0.00  0.00    +0.145 HD
ENDBRANCH  59  60
ENDBRANCH  58  59
ENDBRANCH   1  58
TORSDOF 25
ENDMDL
MODEL 14
REMARK VINA RESULT:      -6.1      2.348      7.727
REMARK  Name = TVLQAVGA-mmff94.pdb
REMARK  34 active torsions:
REMARK  status: ('A' for Active; 'I' for Inactive)
REMARK    1  A    between atoms: _1  and  _2
REMARK    2  A    between atoms: _2  and  _3
REMARK    3  A    between atoms: _2  and  _5
REMARK    4  A    between atoms: _5  and  _6
REMARK    5  A    between atoms: _5  and  _7
REMARK    6  A    between atoms: _15  and  _16
REMARK    7  A    between atoms: _16  and  _17
REMARK    8  A    between atoms: _16  and  _19
REMARK    9  A    between atoms: _19  and  _20
REMARK   10  A    between atoms: _19  and  _21
REMARK   11  A    between atoms: _31  and  _32
REMARK   12  A    between atoms: _32  and  _33
REMARK   13  A    between atoms: _32  and  _35
REMARK   14  A    between atoms: _35  and  _36
REMARK   15  A    between atoms: _36  and  _37
REMARK   16  A    between atoms: _36  and  _38
REMARK   17  A    between atoms: _50  and  _51
REMARK   18  A    between atoms: _51  and  _52
REMARK   19  A    between atoms: _51  and  _54
REMARK   20  A    between atoms: _54  and  _55
REMARK   21  A    between atoms: _55  and  _56
REMARK   22  A    between atoms: _67  and  _68
REMARK   23  A    between atoms: _68  and  _69
REMARK   24  A    between atoms: _68  and  _71
REMARK   25  A    between atoms: _77  and  _78
REMARK   26  A    between atoms: _78  and  _79
REMARK   27  A    between atoms: _78  and  _81
REMARK   28  A    between atoms: _81  and  _82
REMARK   29  A    between atoms: _81  and  _83
REMARK   30  A    between atoms: _93  and  _94
REMARK   31  A    between atoms: _94  and  _95
REMARK   32  A    between atoms: _100  and  _101
REMARK   33  A    between atoms: _101  and  _102
REMARK   34  A    between atoms: _101  and  _104
REMARK                            x       y       z     vdW  Elec       q    Type
REMARK                         _______ _______ _______ _____ _____    ______ ____
ROOT
ATOM      1  CA  GLN A   4       6.506  -0.631  21.428  0.00  0.00    +0.159 C 
ENDROOT
BRANCH   1   4
ATOM      2  C   LEU A   3       6.683   1.692  22.301  0.00  0.00    +0.234 C 
ATOM      3  O   LEU A   3       6.036   2.165  21.366  0.00  0.00    -0.274 OA
ATOM      4  N   GLN A   4       6.945   0.350  22.418  0.00  0.00    -0.302 N 
ATOM      5  H   GLN A   4       7.524  -0.000  23.179  0.00  0.00    +0.150 HD
BRANCH   2   6
ATOM      6  CA  LEU A   3       7.229   2.568  23.448  0.00  0.00    +0.159 C 
BRANCH   6   9
ATOM      7  C   VAL A   2       5.567   4.007  24.617  0.00  0.00    +0.234 C 
ATOM      8  O   VAL A   2       6.014   5.051  24.142  0.00  0.00    -0.274 OA
ATOM      9  N   LEU A   3       6.121   2.775  24.376  0.00  0.00    -0.302 N 
ATOM     10  H   LEU A   3       5.642   1.935  24.691  0.00  0.00    +0.150 HD
BRANCH   7  11
ATOM     11  CA  VAL A   2       4.324   3.999  25.530  0.00  0.00    +0.161 C 
BRANCH  11  13
ATOM     12  C   THR A   1       3.636   1.815  26.505  0.00  0.00    +0.233 C 
ATOM     13  N   VAL A   2       4.527   2.855  26.420  0.00  0.00    -0.302 N 
ATOM     14  H   VAL A   2       5.458   2.766  26.820  0.00  0.00    +0.150 HD
ATOM     15  O   THR A   1       2.543   1.816  25.942  0.00  0.00    -0.274 OA
BRANCH  12  16
ATOM     16  CA  THR A   1       4.094   0.651  27.396  0.00  0.00    +0.166 C 
BRANCH  16  17
ATOM     17  N   THR A   1       2.898  -0.008  27.997  0.00  0.00    -0.318 NA
ATOM     18  H1  THR A   1       2.117   0.110  27.348  0.00  0.00    +0.119 HD
ATOM     19  H2  THR A   1       3.079  -1.017  27.983  0.00  0.00    +0.119 HD
ENDBRANCH  16  17
BRANCH  16  20
ATOM     20  CB  THR A   1       4.874  -0.383  26.560  0.00  0.00    +0.137 C 
ATOM     21  CG2 THR A   1       4.159  -1.722  26.458  0.00  0.00    +0.040 C 
BRANCH  20  22
ATOM     22  OG1 THR A   1       5.043   0.133  25.232  0.00  0.00    -0.390 OA
ATOM     23  HG1 THR A   1       5.956  -0.121  24.983  0.00  0.00    +0.210 HD
ENDBRANCH  20  22
ENDBRANCH  16  20
ENDBRANCH  12  16
ENDBRANCH  11  13
BRANCH  11  24
ATOM     24  CB  VAL A   2       4.199   5.319  26.324  0.00  0.00    +0.012 C 
ATOM     25  CG2 VAL A   2       4.666   5.149  27.775  0.00  0.00    +0.009 C 
ATOM     26  CG1 VAL A   2       2.765   5.859  26.325  0.00  0.00    +0.009 C 
ENDBRANCH  11  24
ENDBRANCH   7  11
ENDBRANCH   6   9
BRANCH   6  27
ATOM     27  CB  LEU A   3       8.412   1.854  24.121  0.00  0.00    +0.034 C 
BRANCH  27  28
ATOM     28  CG  LEU A   3       9.804   2.404  23.754  0.00  0.00    -0.015 C 
ATOM     29  CD2 LEU A   3      10.204   1.909  22.361  0.00  0.00    +0.007 C 
ATOM     30  CD1 LEU A   3       9.848   3.934  23.781  0.00  0.00    +0.007 C 
ENDBRANCH  27  28
ENDBRANCH   6  27
ENDBRANCH   2   6
ENDBRANCH   1   4
BRANCH   1  31
ATOM     31  C   GLN A   4       6.167  -1.914  22.210  0.00  0.00    +0.234 C 
ATOM     32  O   GLN A   4       5.799  -1.880  23.384  0.00  0.00    -0.274 OA
ATOM     33  N   ALA A   5       6.365  -3.085  21.525  0.00  0.00    -0.303 N 
ATOM     34  H   ALA A   5       6.621  -3.083  20.540  0.00  0.00    +0.149 HD
BRANCH  33  35
ATOM     35  CA  ALA A   5       6.238  -4.396  22.150  0.00  0.00    +0.156 C 
ATOM     36  CB  ALA A   5       6.033  -5.499  21.123  0.00  0.00    +0.038 C 
BRANCH  35  37
ATOM     37  C   ALA A   5       7.528  -4.645  22.949  0.00  0.00    +0.234 C 
ATOM     38  N   VAL A   6       7.844  -3.664  23.853  0.00  0.00    -0.302 N 
ATOM     39  H   VAL A   6       7.213  -2.882  24.008  0.00  0.00    +0.150 HD
ATOM     40  O   ALA A   5       8.209  -5.655  22.780  0.00  0.00    -0.274 OA
BRANCH  38  41
ATOM     41  CA  VAL A   6       9.037  -3.705  24.704  0.00  0.00    +0.161 C 
BRANCH  41  42
ATOM     42  C   VAL A   6       8.521  -4.192  26.077  0.00  0.00    +0.234 C 
ATOM     43  O   VAL A   6       9.288  -4.564  26.966  0.00  0.00    -0.274 OA
ATOM     44  N   GLY A   7       7.158  -4.220  26.216  0.00  0.00    -0.305 N 
ATOM     45  H   GLY A   7       6.550  -3.909  25.463  0.00  0.00    +0.149 HD
BRANCH  44  46
ATOM     46  CA  GLY A   7       6.506  -4.781  27.384  0.00  0.00    +0.200 C 
BRANCH  46  47
ATOM     47  C   GLY A   7       5.138  -5.321  26.972  0.00  0.00    +0.231 C 
ATOM     48  N   ALA A   8       4.808  -5.100  25.657  0.00  0.00    -0.305 N 
ATOM     49  H   ALA A   8       5.475  -4.667  25.022  0.00  0.00    +0.149 HD
ATOM     50  O   GLY A   7       4.404  -5.923  27.754  0.00  0.00    -0.274 OA
BRANCH  48  51
ATOM     51  CA  ALA A   8       3.556  -5.565  25.079  0.00  0.00    +0.133 C 
ATOM     52  CB  ALA A   8       3.018  -4.596  24.037  0.00  0.00    +0.035 C 
BRANCH  51  53
ATOM     53  C   ALA A   8       3.804  -6.919  24.430  0.00  0.00    +0.245 C 
ATOM     54  O   ALA A   8       4.915  -7.310  24.073  0.00  0.00    -0.299 OA
ENDBRANCH  51  53
ENDBRANCH  48  51
ENDBRANCH  46  47
ENDBRANCH  44  46
ENDBRANCH  41  42
BRANCH  41  55
ATOM     55  CB  VAL A   6       9.712  -2.311  24.814  0.00  0.00    +0.012 C 
ATOM     56  CG2 VAL A   6       8.861  -1.319  25.619  0.00  0.00    +0.009 C 
ATOM     57  CG1 VAL A   6      10.007  -1.687  23.444  0.00  0.00    +0.009 C 
ENDBRANCH  41  55
ENDBRANCH  38  41
ENDBRANCH  35  37
ENDBRANCH  33  35
ENDBRANCH   1  31
BRANCH   1  58
ATOM     58  CB  GLN A   4       7.617  -0.889  20.397  0.00  0.00    +0.041 C 
BRANCH  58  59
ATOM     59  CG  GLN A   4       7.590   0.070  19.208  0.00  0.00    +0.098 C 
BRANCH  59  60
ATOM     60  CD  GLN A   4       6.305   0.001  18.410  0.00  0.00    +0.211 C 
ATOM     61  OE1 GLN A   4       6.002  -0.969  17.724  0.00  0.00    -0.276 OA
ATOM     62  NE2 GLN A   4       5.520   1.113  18.419  0.00  0.00    -0.329 N 
ATOM     63 HE21 GLN A   4       5.686   1.919  19.004  0.00  0.00    +0.145 HD
ATOM     64 HE22 GLN A   4       4.655   1.069  17.895  0.00  0.00    +0.145 HD
ENDBRANCH  59  60
ENDBRANCH  58  59
ENDBRANCH   1  58
TORSDOF 25
ENDMDL
MODEL 15
REMARK VINA RESULT:      -6.1      2.106      6.950
REMARK  Name = TVLQAVGA-mmff94.pdb
REMARK  34 active torsions:
REMARK  status: ('A' for Active; 'I' for Inactive)
REMARK    1  A    between atoms: _1  and  _2
REMARK    2  A    between atoms: _2  and  _3
REMARK    3  A    between atoms: _2  and  _5
REMARK    4  A    between atoms: _5  and  _6
REMARK    5  A    between atoms: _5  and  _7
REMARK    6  A    between atoms: _15  and  _16
REMARK    7  A    between atoms: _16  and  _17
REMARK    8  A    between atoms: _16  and  _19
REMARK    9  A    between atoms: _19  and  _20
REMARK   10  A    between atoms: _19  and  _21
REMARK   11  A    between atoms: _31  and  _32
REMARK   12  A    between atoms: _32  and  _33
REMARK   13  A    between atoms: _32  and  _35
REMARK   14  A    between atoms: _35  and  _36
REMARK   15  A    between atoms: _36  and  _37
REMARK   16  A    between atoms: _36  and  _38
REMARK   17  A    between atoms: _50  and  _51
REMARK   18  A    between atoms: _51  and  _52
REMARK   19  A    between atoms: _51  and  _54
REMARK   20  A    between atoms: _54  and  _55
REMARK   21  A    between atoms: _55  and  _56
REMARK   22  A    between atoms: _67  and  _68
REMARK   23  A    between atoms: _68  and  _69
REMARK   24  A    between atoms: _68  and  _71
REMARK   25  A    between atoms: _77  and  _78
REMARK   26  A    between atoms: _78  and  _79
REMARK   27  A    between atoms: _78  and  _81
REMARK   28  A    between atoms: _81  and  _82
REMARK   29  A    between atoms: _81  and  _83
REMARK   30  A    between atoms: _93  and  _94
REMARK   31  A    between atoms: _94  and  _95
REMARK   32  A    between atoms: _100  and  _101
REMARK   33  A    between atoms: _101  and  _102
REMARK   34  A    between atoms: _101  and  _104
REMARK                            x       y       z     vdW  Elec       q    Type
REMARK                         _______ _______ _______ _____ _____    ______ ____
ROOT
ATOM      1  CA  GLN A   4       5.937  -0.080  27.059  0.00  0.00    +0.159 C 
ENDROOT
BRANCH   1   4
ATOM      2  C   LEU A   3       4.381  -1.847  27.866  0.00  0.00    +0.234 C 
ATOM      3  O   LEU A   3       3.622  -1.033  28.392  0.00  0.00    -0.274 OA
ATOM      4  N   GLN A   4       5.516  -1.474  27.189  0.00  0.00    -0.302 N 
ATOM      5  H   GLN A   4       6.146  -2.177  26.808  0.00  0.00    +0.150 HD
BRANCH   2   6
ATOM      6  CA  LEU A   3       4.105  -3.365  27.894  0.00  0.00    +0.159 C 
BRANCH   6   9
ATOM      7  C   VAL A   2       3.120  -4.753  26.076  0.00  0.00    +0.234 C 
ATOM      8  O   VAL A   2       2.403  -5.395  26.843  0.00  0.00    -0.274 OA
ATOM      9  N   LEU A   3       4.004  -3.794  26.501  0.00  0.00    -0.302 N 
ATOM     10  H   LEU A   3       4.481  -3.207  25.821  0.00  0.00    +0.150 HD
BRANCH   7  11
ATOM     11  CA  VAL A   2       3.076  -4.973  24.550  0.00  0.00    +0.161 C 
BRANCH  11  13
ATOM     12  C   THR A   1       5.274  -4.511  23.479  0.00  0.00    +0.233 C 
ATOM     13  N   VAL A   2       4.446  -5.342  24.191  0.00  0.00    -0.302 N 
ATOM     14  H   VAL A   2       4.825  -6.155  24.670  0.00  0.00    +0.150 HD
ATOM     15  O   THR A   1       4.900  -3.453  22.979  0.00  0.00    -0.274 OA
BRANCH  12  16
ATOM     16  CA  THR A   1       6.712  -5.026  23.319  0.00  0.00    +0.166 C 
BRANCH  16  17
ATOM     17  N   THR A   1       7.456  -4.125  22.391  0.00  0.00    -0.318 NA
ATOM     18  H1  THR A   1       7.558  -3.217  22.851  0.00  0.00    +0.119 HD
ATOM     19  H2  THR A   1       8.417  -4.482  22.339  0.00  0.00    +0.119 HD
ENDBRANCH  16  17
BRANCH  16  20
ATOM     20  CB  THR A   1       7.425  -5.045  24.685  0.00  0.00    +0.137 C 
ATOM     21  CG2 THR A   1       8.922  -4.788  24.577  0.00  0.00    +0.040 C 
BRANCH  20  22
ATOM     22  OG1 THR A   1       6.859  -4.020  25.514  0.00  0.00    -0.390 OA
ATOM     23  HG1 THR A   1       7.633  -3.528  25.860  0.00  0.00    +0.210 HD
ENDBRANCH  20  22
ENDBRANCH  16  20
ENDBRANCH  12  16
ENDBRANCH  11  13
BRANCH  11  24
ATOM     24  CB  VAL A   2       2.072  -6.084  24.170  0.00  0.00    +0.012 C 
ATOM     25  CG2 VAL A   2       2.731  -7.470  24.196  0.00  0.00    +0.009 C 
ATOM     26  CG1 VAL A   2       1.455  -5.856  22.786  0.00  0.00    +0.009 C 
ENDBRANCH  11  24
ENDBRANCH   7  11
ENDBRANCH   6   9
BRANCH   6  27
ATOM     27  CB  LEU A   3       5.247  -4.082  28.630  0.00  0.00    +0.034 C 
BRANCH  27  28
ATOM     28  CG  LEU A   3       4.803  -5.056  29.739  0.00  0.00    -0.015 C 
ATOM     29  CD2 LEU A   3       3.387  -4.700  30.203  0.00  0.00    +0.007 C 
ATOM     30  CD1 LEU A   3       4.833  -6.514  29.275  0.00  0.00    +0.007 C 
ENDBRANCH  27  28
ENDBRANCH   6  27
ENDBRANCH   2   6
ENDBRANCH   1   4
BRANCH   1  31
ATOM     31  C   GLN A   4       5.355   0.425  25.725  0.00  0.00    +0.234 C 
ATOM     32  O   GLN A   4       5.228  -0.317  24.751  0.00  0.00    -0.274 OA
ATOM     33  N   ALA A   5       5.054   1.762  25.688  0.00  0.00    -0.303 N 
ATOM     34  H   ALA A   5       5.121   2.340  26.523  0.00  0.00    +0.149 HD
BRANCH  33  35
ATOM     35  CA  ALA A   5       4.634   2.443  24.470  0.00  0.00    +0.156 C 
ATOM     36  CB  ALA A   5       3.813   3.688  24.768  0.00  0.00    +0.038 C 
BRANCH  35  37
ATOM     37  C   ALA A   5       5.909   2.818  23.698  0.00  0.00    +0.234 C 
ATOM     38  N   VAL A   6       6.615   3.868  24.225  0.00  0.00    -0.302 N 
ATOM     39  H   VAL A   6       6.327   4.296  25.101  0.00  0.00    +0.150 HD
ATOM     40  O   ALA A   5       6.257   2.207  22.688  0.00  0.00    -0.274 OA
BRANCH  38  41
ATOM     41  CA  VAL A   6       7.851   4.388  23.633  0.00  0.00    +0.161 C 
BRANCH  41  42
ATOM     42  C   VAL A   6       8.820   3.184  23.632  0.00  0.00    +0.234 C 
ATOM     43  O   VAL A   6       9.212   2.662  24.676  0.00  0.00    -0.274 OA
ATOM     44  N   GLY A   7       9.240   2.769  22.395  0.00  0.00    -0.305 N 
ATOM     45  H   GLY A   7       8.902   3.222  21.550  0.00  0.00    +0.149 HD
BRANCH  44  46
ATOM     46  CA  GLY A   7      10.256   1.749  22.220  0.00  0.00    +0.200 C 
BRANCH  46  47
ATOM     47  C   GLY A   7       9.616   0.523  21.572  0.00  0.00    +0.231 C 
ATOM     48  N   ALA A   8       8.513   0.794  20.799  0.00  0.00    -0.305 N 
ATOM     49  H   ALA A   8       8.217   1.754  20.640  0.00  0.00    +0.149 HD
ATOM     50  O   GLY A   7      10.068  -0.612  21.718  0.00  0.00    -0.274 OA
BRANCH  48  51
ATOM     51  CA  ALA A   8       7.789  -0.245  20.083  0.00  0.00    +0.133 C 
ATOM     52  CB  ALA A   8       6.721  -0.894  20.952  0.00  0.00    +0.035 C 
BRANCH  51  53
ATOM     53  C   ALA A   8       7.134   0.383  18.862  0.00  0.00    +0.245 C 
ATOM     54  O   ALA A   8       6.540  -0.264  17.999  0.00  0.00    -0.299 OA
ENDBRANCH  51  53
ENDBRANCH  48  51
ENDBRANCH  46  47
ENDBRANCH  44  46
ENDBRANCH  41  42
BRANCH  41  55
ATOM     55  CB  VAL A   6       8.425   5.576  24.451  0.00  0.00    +0.012 C 
ATOM     56  CG2 VAL A   6       9.926   5.778  24.201  0.00  0.00    +0.009 C 
ATOM     57  CG1 VAL A   6       8.209   5.413  25.961  0.00  0.00    +0.009 C 
ENDBRANCH  41  55
ENDBRANCH  38  41
ENDBRANCH  35  37
ENDBRANCH  33  35
ENDBRANCH   1  31
BRANCH   1  58
ATOM     58  CB  GLN A   4       7.471   0.020  27.067  0.00  0.00    +0.041 C 
BRANCH  58  59
ATOM     59  CG  GLN A   4       8.175  -1.238  26.559  0.00  0.00    +0.098 C 
BRANCH  59  60
ATOM     60  CD  GLN A   4       8.802  -1.065  25.191  0.00  0.00    +0.211 C 
ATOM     61  OE1 GLN A   4       9.907  -0.560  25.029  0.00  0.00    -0.276 OA
ATOM     62  NE2 GLN A   4       8.043  -1.426  24.121  0.00  0.00    -0.329 N 
ATOM     63 HE21 GLN A   4       7.153  -1.897  24.191  0.00  0.00    +0.145 HD
ATOM     64 HE22 GLN A   4       8.461  -1.322  23.205  0.00  0.00    +0.145 HD
ENDBRANCH  59  60
ENDBRANCH  58  59
ENDBRANCH   1  58
TORSDOF 25
ENDMDL
MODEL 16
REMARK VINA RESULT:      -6.1      2.122      7.015
REMARK  Name = TVLQAVGA-mmff94.pdb
REMARK  34 active torsions:
REMARK  status: ('A' for Active; 'I' for Inactive)
REMARK    1  A    between atoms: _1  and  _2
REMARK    2  A    between atoms: _2  and  _3
REMARK    3  A    between atoms: _2  and  _5
REMARK    4  A    between atoms: _5  and  _6
REMARK    5  A    between atoms: _5  and  _7
REMARK    6  A    between atoms: _15  and  _16
REMARK    7  A    between atoms: _16  and  _17
REMARK    8  A    between atoms: _16  and  _19
REMARK    9  A    between atoms: _19  and  _20
REMARK   10  A    between atoms: _19  and  _21
REMARK   11  A    between atoms: _31  and  _32
REMARK   12  A    between atoms: _32  and  _33
REMARK   13  A    between atoms: _32  and  _35
REMARK   14  A    between atoms: _35  and  _36
REMARK   15  A    between atoms: _36  and  _37
REMARK   16  A    between atoms: _36  and  _38
REMARK   17  A    between atoms: _50  and  _51
REMARK   18  A    between atoms: _51  and  _52
REMARK   19  A    between atoms: _51  and  _54
REMARK   20  A    between atoms: _54  and  _55
REMARK   21  A    between atoms: _55  and  _56
REMARK   22  A    between atoms: _67  and  _68
REMARK   23  A    between atoms: _68  and  _69
REMARK   24  A    between atoms: _68  and  _71
REMARK   25  A    between atoms: _77  and  _78
REMARK   26  A    between atoms: _78  and  _79
REMARK   27  A    between atoms: _78  and  _81
REMARK   28  A    between atoms: _81  and  _82
REMARK   29  A    between atoms: _81  and  _83
REMARK   30  A    between atoms: _93  and  _94
REMARK   31  A    between atoms: _94  and  _95
REMARK   32  A    between atoms: _100  and  _101
REMARK   33  A    between atoms: _101  and  _102
REMARK   34  A    between atoms: _101  and  _104
REMARK                            x       y       z     vdW  Elec       q    Type
REMARK                         _______ _______ _______ _____ _____    ______ ____
ROOT
ATOM      1  CA  GLN A   4       5.032   0.148  27.847  0.00  0.00    +0.159 C 
ENDROOT
BRANCH   1   4
ATOM      2  C   LEU A   3       3.796  -1.902  28.526  0.00  0.00    +0.234 C 
ATOM      3  O   LEU A   3       3.192  -1.321  29.428  0.00  0.00    -0.274 OA
ATOM      4  N   GLN A   4       4.693  -1.267  27.704  0.00  0.00    -0.302 N 
ATOM      5  H   GLN A   4       5.210  -1.789  26.999  0.00  0.00    +0.150 HD
BRANCH   2   6
ATOM      6  CA  LEU A   3       3.570  -3.397  28.217  0.00  0.00    +0.159 C 
BRANCH   6   9
ATOM      7  C   VAL A   2       3.716  -4.231  25.875  0.00  0.00    +0.234 C 
ATOM      8  O   VAL A   2       2.546  -4.614  25.852  0.00  0.00    -0.274 OA
ATOM      9  N   LEU A   3       4.304  -3.681  26.986  0.00  0.00    -0.302 N 
ATOM     10  H   LEU A   3       5.231  -3.270  26.917  0.00  0.00    +0.150 HD
BRANCH   7  11
ATOM     11  CA  VAL A   2       4.627  -4.334  24.635  0.00  0.00    +0.161 C 
BRANCH  11  13
ATOM     12  C   THR A   1       6.696  -3.195  25.418  0.00  0.00    +0.233 C 
ATOM     13  N   VAL A   2       5.986  -4.345  25.176  0.00  0.00    -0.302 N 
ATOM     14  H   VAL A   2       6.304  -5.232  25.558  0.00  0.00    +0.150 HD
ATOM     15  O   THR A   1       6.303  -2.078  25.088  0.00  0.00    -0.274 OA
BRANCH  12  16
ATOM     16  CA  THR A   1       8.050  -3.413  26.109  0.00  0.00    +0.166 C 
BRANCH  16  17
ATOM     17  N   THR A   1       7.914  -4.499  27.124  0.00  0.00    -0.318 NA
ATOM     18  H1  THR A   1       8.638  -4.359  27.831  0.00  0.00    +0.119 HD
ATOM     19  H2  THR A   1       7.039  -4.323  27.630  0.00  0.00    +0.119 HD
ENDBRANCH  16  17
BRANCH  16  20
ATOM     20  CB  THR A   1       9.116  -3.820  25.073  0.00  0.00    +0.137 C 
ATOM     21  CG2 THR A   1       9.612  -5.247  25.261  0.00  0.00    +0.040 C 
BRANCH  20  22
ATOM     22  OG1 THR A   1       8.544  -3.719  23.761  0.00  0.00    -0.390 OA
ATOM     23  HG1 THR A   1       8.215  -4.622  23.566  0.00  0.00    +0.210 HD
ENDBRANCH  20  22
ENDBRANCH  16  20
ENDBRANCH  12  16
ENDBRANCH  11  13
BRANCH  11  24
ATOM     24  CB  VAL A   2       4.330  -5.615  23.823  0.00  0.00    +0.012 C 
ATOM     25  CG2 VAL A   2       4.537  -6.878  24.670  0.00  0.00    +0.009 C 
ATOM     26  CG1 VAL A   2       5.200  -5.716  22.565  0.00  0.00    +0.009 C 
ENDBRANCH  11  24
ENDBRANCH   7  11
ENDBRANCH   6   9
BRANCH   6  27
ATOM     27  CB  LEU A   3       4.077  -4.247  29.393  0.00  0.00    +0.034 C 
BRANCH  27  28
ATOM     28  CG  LEU A   3       3.284  -5.542  29.656  0.00  0.00    -0.015 C 
ATOM     29  CD2 LEU A   3       1.818  -5.339  29.259  0.00  0.00    +0.007 C 
ATOM     30  CD1 LEU A   3       3.856  -6.737  28.890  0.00  0.00    +0.007 C 
ENDBRANCH  27  28
ENDBRANCH   6  27
ENDBRANCH   2   6
ENDBRANCH   1   4
BRANCH   1  31
ATOM     31  C   GLN A   4       4.560   0.840  26.554  0.00  0.00    +0.234 C 
ATOM     32  O   GLN A   4       3.389   0.782  26.178  0.00  0.00    -0.274 OA
ATOM     33  N   ALA A   5       5.545   1.461  25.831  0.00  0.00    -0.303 N 
ATOM     34  H   ALA A   5       6.495   1.537  26.190  0.00  0.00    +0.149 HD
BRANCH  33  35
ATOM     35  CA  ALA A   5       5.312   2.039  24.513  0.00  0.00    +0.156 C 
ATOM     36  CB  ALA A   5       4.915   3.505  24.596  0.00  0.00    +0.038 C 
BRANCH  35  37
ATOM     37  C   ALA A   5       6.615   1.885  23.713  0.00  0.00    +0.234 C 
ATOM     38  N   VAL A   6       7.194   0.644  23.787  0.00  0.00    -0.302 N 
ATOM     39  H   VAL A   6       6.731  -0.113  24.284  0.00  0.00    +0.150 HD
ATOM     40  O   ALA A   5       7.086   2.813  23.058  0.00  0.00    -0.274 OA
BRANCH  38  41
ATOM     41  CA  VAL A   6       8.445   0.296  23.108  0.00  0.00    +0.161 C 
BRANCH  41  42
ATOM     42  C   VAL A   6       8.110  -0.981  22.303  0.00  0.00    +0.234 C 
ATOM     43  O   VAL A   6       8.978  -1.624  21.711  0.00  0.00    -0.274 OA
ATOM     44  N   GLY A   7       6.783  -1.319  22.264  0.00  0.00    -0.305 N 
ATOM     45  H   GLY A   7       6.088  -0.767  22.761  0.00  0.00    +0.149 HD
BRANCH  44  46
ATOM     46  CA  GLY A   7       6.279  -2.402  21.442  0.00  0.00    +0.200 C 
BRANCH  46  47
ATOM     47  C   GLY A   7       5.765  -1.823  20.126  0.00  0.00    +0.231 C 
ATOM     48  N   ALA A   8       5.761  -0.451  20.067  0.00  0.00    -0.305 N 
ATOM     49  H   ALA A   8       6.142   0.100  20.833  0.00  0.00    +0.149 HD
ATOM     50  O   GLY A   7       5.403  -2.534  19.189  0.00  0.00    -0.274 OA
BRANCH  48  51
ATOM     51  CA  ALA A   8       5.330   0.277  18.883  0.00  0.00    +0.133 C 
ATOM     52  CB  ALA A   8       4.595   1.560  19.243  0.00  0.00    +0.035 C 
BRANCH  51  53
ATOM     53  C   ALA A   8       6.561   0.616  18.055  0.00  0.00    +0.245 C 
ATOM     54  O   ALA A   8       6.554   1.421  17.124  0.00  0.00    -0.299 OA
ENDBRANCH  51  53
ENDBRANCH  48  51
ENDBRANCH  46  47
ENDBRANCH  44  46
ENDBRANCH  41  42
BRANCH  41  55
ATOM     55  CB  VAL A   6       9.597   0.043  24.118  0.00  0.00    +0.012 C 
ATOM     56  CG2 VAL A   6       9.087  -0.050  25.563  0.00  0.00    +0.009 C 
ATOM     57  CG1 VAL A   6      10.681   1.127  24.062  0.00  0.00    +0.009 C 
ENDBRANCH  41  55
ENDBRANCH  38  41
ENDBRANCH  35  37
ENDBRANCH  33  35
ENDBRANCH   1  31
BRANCH   1  58
ATOM     58  CB  GLN A   4       6.547   0.320  28.045  0.00  0.00    +0.041 C 
BRANCH  58  59
ATOM     59  CG  GLN A   4       6.920   1.111  29.298  0.00  0.00    +0.098 C 
BRANCH  59  60
ATOM     60  CD  GLN A   4       7.046   2.600  29.054  0.00  0.00    +0.211 C 
ATOM     61  OE1 GLN A   4       6.955   3.098  27.937  0.00  0.00    -0.276 OA
ATOM     62  NE2 GLN A   4       7.350   3.373  30.132  0.00  0.00    -0.329 N 
ATOM     63 HE21 GLN A   4       7.383   3.033  31.081  0.00  0.00    +0.145 HD
ATOM     64 HE22 GLN A   4       7.426   4.370  29.976  0.00  0.00    +0.145 HD
ENDBRANCH  59  60
ENDBRANCH  58  59
ENDBRANCH   1  58
TORSDOF 25
ENDMDL
MODEL 17
REMARK VINA RESULT:      -6.1      2.212      6.296
REMARK  Name = TVLQAVGA-mmff94.pdb
REMARK  34 active torsions:
REMARK  status: ('A' for Active; 'I' for Inactive)
REMARK    1  A    between atoms: _1  and  _2
REMARK    2  A    between atoms: _2  and  _3
REMARK    3  A    between atoms: _2  and  _5
REMARK    4  A    between atoms: _5  and  _6
REMARK    5  A    between atoms: _5  and  _7
REMARK    6  A    between atoms: _15  and  _16
REMARK    7  A    between atoms: _16  and  _17
REMARK    8  A    between atoms: _16  and  _19
REMARK    9  A    between atoms: _19  and  _20
REMARK   10  A    between atoms: _19  and  _21
REMARK   11  A    between atoms: _31  and  _32
REMARK   12  A    between atoms: _32  and  _33
REMARK   13  A    between atoms: _32  and  _35
REMARK   14  A    between atoms: _35  and  _36
REMARK   15  A    between atoms: _36  and  _37
REMARK   16  A    between atoms: _36  and  _38
REMARK   17  A    between atoms: _50  and  _51
REMARK   18  A    between atoms: _51  and  _52
REMARK   19  A    between atoms: _51  and  _54
REMARK   20  A    between atoms: _54  and  _55
REMARK   21  A    between atoms: _55  and  _56
REMARK   22  A    between atoms: _67  and  _68
REMARK   23  A    between atoms: _68  and  _69
REMARK   24  A    between atoms: _68  and  _71
REMARK   25  A    between atoms: _77  and  _78
REMARK   26  A    between atoms: _78  and  _79
REMARK   27  A    between atoms: _78  and  _81
REMARK   28  A    between atoms: _81  and  _82
REMARK   29  A    between atoms: _81  and  _83
REMARK   30  A    between atoms: _93  and  _94
REMARK   31  A    between atoms: _94  and  _95
REMARK   32  A    between atoms: _100  and  _101
REMARK   33  A    between atoms: _101  and  _102
REMARK   34  A    between atoms: _101  and  _104
REMARK                            x       y       z     vdW  Elec       q    Type
REMARK                         _______ _______ _______ _____ _____    ______ ____
ROOT
ATOM      1  CA  GLN A   4       8.004  -1.673  25.233  0.00  0.00    +0.159 C 
ENDROOT
BRANCH   1   4
ATOM      2  C   LEU A   3       6.787   0.410  25.845  0.00  0.00    +0.234 C 
ATOM      3  O   LEU A   3       5.765   0.068  25.248  0.00  0.00    -0.274 OA
ATOM      4  N   GLN A   4       7.912  -0.376  25.900  0.00  0.00    -0.302 N 
ATOM      5  H   GLN A   4       8.755  -0.042  26.361  0.00  0.00    +0.150 HD
BRANCH   2   6
ATOM      6  CA  LEU A   3       6.883   1.744  26.614  0.00  0.00    +0.159 C 
BRANCH   6   9
ATOM      7  C   VAL A   2       8.153   2.978  24.864  0.00  0.00    +0.234 C 
ATOM      8  O   VAL A   2       9.186   2.334  25.043  0.00  0.00    -0.274 OA
ATOM      9  N   LEU A   3       7.015   2.794  25.608  0.00  0.00    -0.302 N 
ATOM     10  H   LEU A   3       6.153   3.263  25.339  0.00  0.00    +0.150 HD
BRANCH   7  11
ATOM     11  CA  VAL A   2       8.051   4.055  23.764  0.00  0.00    +0.161 C 
BRANCH  11  13
ATOM     12  C   THR A   1       5.948   3.668  22.490  0.00  0.00    +0.233 C 
ATOM     13  N   VAL A   2       6.613   4.229  23.552  0.00  0.00    -0.302 N 
ATOM     14  H   VAL A   2       6.092   4.612  24.337  0.00  0.00    +0.150 HD
ATOM     15  O   THR A   1       6.518   3.085  21.571  0.00  0.00    -0.274 OA
BRANCH  12  16
ATOM     16  CA  THR A   1       4.424   3.857  22.518  0.00  0.00    +0.166 C 
BRANCH  16  17
ATOM     17  N   THR A   1       3.809   3.047  21.426  0.00  0.00    -0.318 NA
ATOM     18  H1  THR A   1       2.806   2.982  21.611  0.00  0.00    +0.119 HD
ATOM     19  H2  THR A   1       3.865   3.613  20.572  0.00  0.00    +0.119 HD
ENDBRANCH  16  17
BRANCH  16  20
ATOM     20  CB  THR A   1       3.855   3.393  23.873  0.00  0.00    +0.137 C 
ATOM     21  CG2 THR A   1       2.334   3.376  23.903  0.00  0.00    +0.040 C 
BRANCH  20  22
ATOM     22  OG1 THR A   1       4.318   2.060  24.134  0.00  0.00    -0.390 OA
ATOM     23  HG1 THR A   1       3.603   1.650  24.664  0.00  0.00    +0.210 HD
ENDBRANCH  20  22
ENDBRANCH  16  20
ENDBRANCH  12  16
ENDBRANCH  11  13
BRANCH  11  24
ATOM     24  CB  VAL A   2       8.721   5.376  24.205  0.00  0.00    +0.012 C 
ATOM     25  CG2 VAL A   2      10.212   5.397  23.843  0.00  0.00    +0.009 C 
ATOM     26  CG1 VAL A   2       8.574   5.623  25.710  0.00  0.00    +0.009 C 
ENDBRANCH  11  24
ENDBRANCH   7  11
ENDBRANCH   6   9
BRANCH   6  27
ATOM     27  CB  LEU A   3       5.623   1.932  27.473  0.00  0.00    +0.034 C 
BRANCH  27  28
ATOM     28  CG  LEU A   3       5.744   1.444  28.930  0.00  0.00    -0.015 C 
ATOM     29  CD2 LEU A   3       5.042   0.091  29.082  0.00  0.00    +0.007 C 
ATOM     30  CD1 LEU A   3       7.202   1.311  29.376  0.00  0.00    +0.007 C 
ENDBRANCH  27  28
ENDBRANCH   6  27
ENDBRANCH   2   6
ENDBRANCH   1   4
BRANCH   1  31
ATOM     31  C   GLN A   4       7.703  -2.736  26.307  0.00  0.00    +0.234 C 
ATOM     32  O   GLN A   4       8.596  -3.415  26.814  0.00  0.00    -0.274 OA
ATOM     33  N   ALA A   5       6.376  -2.908  26.602  0.00  0.00    -0.303 N 
ATOM     34  H   ALA A   5       5.664  -2.299  26.205  0.00  0.00    +0.149 HD
BRANCH  33  35
ATOM     35  CA  ALA A   5       5.895  -3.966  27.482  0.00  0.00    +0.156 C 
ATOM     36  CB  ALA A   5       4.506  -3.666  28.027  0.00  0.00    +0.038 C 
BRANCH  35  37
ATOM     37  C   ALA A   5       5.875  -5.265  26.661  0.00  0.00    +0.234 C 
ATOM     38  N   VAL A   6       5.481  -5.117  25.356  0.00  0.00    -0.302 N 
ATOM     39  H   VAL A   6       5.292  -4.193  24.976  0.00  0.00    +0.150 HD
ATOM     40  O   ALA A   5       6.197  -6.346  27.152  0.00  0.00    -0.274 OA
BRANCH  38  41
ATOM     41  CA  VAL A   6       5.383  -6.233  24.412  0.00  0.00    +0.161 C 
BRANCH  41  42
ATOM     42  C   VAL A   6       6.054  -5.711  23.120  0.00  0.00    +0.234 C 
ATOM     43  O   VAL A   6       6.224  -6.433  22.137  0.00  0.00    -0.274 OA
ATOM     44  N   GLY A   7       6.479  -4.409  23.164  0.00  0.00    -0.305 N 
ATOM     45  H   GLY A   7       6.328  -3.838  23.992  0.00  0.00    +0.149 HD
BRANCH  44  46
ATOM     46  CA  GLY A   7       7.252  -3.806  22.096  0.00  0.00    +0.200 C 
BRANCH  46  47
ATOM     47  C   GLY A   7       6.699  -2.410  21.816  0.00  0.00    +0.231 C 
ATOM     48  N   ALA A   8       7.106  -1.861  20.625  0.00  0.00    -0.305 N 
ATOM     49  H   ALA A   8       7.676  -2.399  19.976  0.00  0.00    +0.149 HD
ATOM     50  O   GLY A   7       5.935  -1.836  22.591  0.00  0.00    -0.274 OA
BRANCH  48  51
ATOM     51  CA  ALA A   8       6.660  -0.550  20.178  0.00  0.00    +0.133 C 
ATOM     52  CB  ALA A   8       7.824   0.326  19.741  0.00  0.00    +0.035 C 
BRANCH  51  53
ATOM     53  C   ALA A   8       5.705  -0.742  19.009  0.00  0.00    +0.245 C 
ATOM     54  O   ALA A   8       6.026  -0.573  17.833  0.00  0.00    -0.299 OA
ENDBRANCH  51  53
ENDBRANCH  48  51
ENDBRANCH  46  47
ENDBRANCH  44  46
ENDBRANCH  41  42
BRANCH  41  55
ATOM     55  CB  VAL A   6       3.908  -6.644  24.157  0.00  0.00    +0.012 C 
ATOM     56  CG2 VAL A   6       2.995  -5.425  23.960  0.00  0.00    +0.009 C 
ATOM     57  CG1 VAL A   6       3.328  -7.498  25.292  0.00  0.00    +0.009 C 
ENDBRANCH  41  55
ENDBRANCH  38  41
ENDBRANCH  35  37
ENDBRANCH  33  35
ENDBRANCH   1  31
BRANCH   1  58
ATOM     58  CB  GLN A   4       9.407  -1.872  24.636  0.00  0.00    +0.041 C 
BRANCH  58  59
ATOM     59  CG  GLN A   4      10.096  -0.568  24.234  0.00  0.00    +0.098 C 
BRANCH  59  60
ATOM     60  CD  GLN A   4      10.041  -0.294  22.745  0.00  0.00    +0.211 C 
ATOM     61  OE1 GLN A   4       9.990  -1.189  21.908  0.00  0.00    -0.276 OA
ATOM     62  NE2 GLN A   4      10.133   1.008  22.360  0.00  0.00    -0.329 N 
ATOM     63 HE21 GLN A   4      10.121   1.790  22.999  0.00  0.00    +0.145 HD
ATOM     64 HE22 GLN A   4      10.086   1.198  21.367  0.00  0.00    +0.145 HD
ENDBRANCH  59  60
ENDBRANCH  58  59
ENDBRANCH   1  58
TORSDOF 25
ENDMDL
MODEL 18
REMARK VINA RESULT:      -6.0      2.128      7.019
REMARK  Name = TVLQAVGA-mmff94.pdb
REMARK  34 active torsions:
REMARK  status: ('A' for Active; 'I' for Inactive)
REMARK    1  A    between atoms: _1  and  _2
REMARK    2  A    between atoms: _2  and  _3
REMARK    3  A    between atoms: _2  and  _5
REMARK    4  A    between atoms: _5  and  _6
REMARK    5  A    between atoms: _5  and  _7
REMARK    6  A    between atoms: _15  and  _16
REMARK    7  A    between atoms: _16  and  _17
REMARK    8  A    between atoms: _16  and  _19
REMARK    9  A    between atoms: _19  and  _20
REMARK   10  A    between atoms: _19  and  _21
REMARK   11  A    between atoms: _31  and  _32
REMARK   12  A    between atoms: _32  and  _33
REMARK   13  A    between atoms: _32  and  _35
REMARK   14  A    between atoms: _35  and  _36
REMARK   15  A    between atoms: _36  and  _37
REMARK   16  A    between atoms: _36  and  _38
REMARK   17  A    between atoms: _50  and  _51
REMARK   18  A    between atoms: _51  and  _52
REMARK   19  A    between atoms: _51  and  _54
REMARK   20  A    between atoms: _54  and  _55
REMARK   21  A    between atoms: _55  and  _56
REMARK   22  A    between atoms: _67  and  _68
REMARK   23  A    between atoms: _68  and  _69
REMARK   24  A    between atoms: _68  and  _71
REMARK   25  A    between atoms: _77  and  _78
REMARK   26  A    between atoms: _78  and  _79
REMARK   27  A    between atoms: _78  and  _81
REMARK   28  A    between atoms: _81  and  _82
REMARK   29  A    between atoms: _81  and  _83
REMARK   30  A    between atoms: _93  and  _94
REMARK   31  A    between atoms: _94  and  _95
REMARK   32  A    between atoms: _100  and  _101
REMARK   33  A    between atoms: _101  and  _102
REMARK   34  A    between atoms: _101  and  _104
REMARK                            x       y       z     vdW  Elec       q    Type
REMARK                         _______ _______ _______ _____ _____    ______ ____
ROOT
ATOM      1  CA  GLN A   4       4.668   1.680  26.948  0.00  0.00    +0.159 C 
ENDROOT
BRANCH   1   4
ATOM      2  C   LEU A   3       4.888  -0.664  26.141  0.00  0.00    +0.234 C 
ATOM      3  O   LEU A   3       5.815  -0.385  25.380  0.00  0.00    -0.274 OA
ATOM      4  N   GLN A   4       4.283   0.270  26.946  0.00  0.00    -0.302 N 
ATOM      5  H   GLN A   4       3.488   0.015  27.528  0.00  0.00    +0.150 HD
BRANCH   2   6
ATOM      6  CA  LEU A   3       4.344  -2.101  26.282  0.00  0.00    +0.159 C 
BRANCH   6   9
ATOM      7  C   VAL A   2       4.669  -3.752  24.448  0.00  0.00    +0.234 C 
ATOM      8  O   VAL A   2       3.462  -3.899  24.255  0.00  0.00    -0.274 OA
ATOM      9  N   LEU A   3       5.179  -2.946  25.434  0.00  0.00    -0.302 N 
ATOM     10  H   LEU A   3       6.179  -2.763  25.471  0.00  0.00    +0.150 HD
BRANCH   7  11
ATOM     11  CA  VAL A   2       5.721  -4.468  23.576  0.00  0.00    +0.161 C 
BRANCH  11  13
ATOM     12  C   THR A   1       8.016  -4.923  24.425  0.00  0.00    +0.233 C 
ATOM     13  N   VAL A   2       6.655  -5.058  24.537  0.00  0.00    -0.302 N 
ATOM     14  H   VAL A   2       6.243  -5.397  25.403  0.00  0.00    +0.150 HD
ATOM     15  O   THR A   1       8.565  -4.409  23.453  0.00  0.00    -0.274 OA
BRANCH  12  16
ATOM     16  CA  THR A   1       8.814  -5.502  25.603  0.00  0.00    +0.166 C 
BRANCH  16  17
ATOM     17  N   THR A   1      10.265  -5.519  25.252  0.00  0.00    -0.318 NA
ATOM     18  H1  THR A   1      10.693  -4.680  25.647  0.00  0.00    +0.119 HD
ATOM     19  H2  THR A   1      10.689  -6.286  25.786  0.00  0.00    +0.119 HD
ENDBRANCH  16  17
BRANCH  16  20
ATOM     20  CB  THR A   1       8.609  -4.636  26.861  0.00  0.00    +0.137 C 
ATOM     21  CG2 THR A   1       8.503  -3.150  26.547  0.00  0.00    +0.040 C 
BRANCH  20  22
ATOM     22  OG1 THR A   1       7.393  -5.040  27.506  0.00  0.00    -0.390 OA
ATOM     23  HG1 THR A   1       6.818  -5.348  26.774  0.00  0.00    +0.210 HD
ENDBRANCH  20  22
ENDBRANCH  16  20
ENDBRANCH  12  16
ENDBRANCH  11  13
BRANCH  11  24
ATOM     24  CB  VAL A   2       5.072  -5.547  22.681  0.00  0.00    +0.012 C 
ATOM     25  CG2 VAL A   2       4.800  -6.838  23.465  0.00  0.00    +0.009 C 
ATOM     26  CG1 VAL A   2       5.937  -5.882  21.461  0.00  0.00    +0.009 C 
ENDBRANCH  11  24
ENDBRANCH   7  11
ENDBRANCH   6   9
BRANCH   6  27
ATOM     27  CB  LEU A   3       4.407  -2.531  27.756  0.00  0.00    +0.034 C 
BRANCH  27  28
ATOM     28  CG  LEU A   3       3.204  -3.357  28.250  0.00  0.00    -0.015 C 
ATOM     29  CD2 LEU A   3       2.895  -2.999  29.707  0.00  0.00    +0.007 C 
ATOM     30  CD1 LEU A   3       1.955  -3.128  27.396  0.00  0.00    +0.007 C 
ENDBRANCH  27  28
ENDBRANCH   6  27
ENDBRANCH   2   6
ENDBRANCH   1   4
BRANCH   1  31
ATOM     31  C   GLN A   4       4.451   2.190  25.512  0.00  0.00    +0.234 C 
ATOM     32  O   GLN A   4       3.344   2.166  24.975  0.00  0.00    -0.274 OA
ATOM     33  N   ALA A   5       5.584   2.609  24.863  0.00  0.00    -0.303 N 
ATOM     34  H   ALA A   5       6.478   2.666  25.348  0.00  0.00    +0.149 HD
BRANCH  33  35
ATOM     35  CA  ALA A   5       5.595   2.984  23.455  0.00  0.00    +0.156 C 
ATOM     36  CB  ALA A   5       5.310   4.465  23.259  0.00  0.00    +0.038 C 
BRANCH  35  37
ATOM     37  C   ALA A   5       6.985   2.631  22.902  0.00  0.00    +0.234 C 
ATOM     38  N   VAL A   6       7.667   1.682  23.618  0.00  0.00    -0.302 N 
ATOM     39  H   VAL A   6       7.227   1.216  24.408  0.00  0.00    +0.150 HD
ATOM     40  O   ALA A   5       7.433   3.166  21.889  0.00  0.00    -0.274 OA
BRANCH  38  41
ATOM     41  CA  VAL A   6       9.010   1.215  23.265  0.00  0.00    +0.161 C 
BRANCH  41  42
ATOM     42  C   VAL A   6       8.784  -0.172  22.619  0.00  0.00    +0.234 C 
ATOM     43  O   VAL A   6       9.698  -0.794  22.077  0.00  0.00    -0.274 OA
ATOM     44  N   GLY A   7       7.495  -0.635  22.658  0.00  0.00    -0.305 N 
ATOM     45  H   GLY A   7       6.761  -0.097  23.111  0.00  0.00    +0.149 HD
BRANCH  44  46
ATOM     46  CA  GLY A   7       7.083  -1.847  21.978  0.00  0.00    +0.200 C 
BRANCH  46  47
ATOM     47  C   GLY A   7       6.230  -1.468  20.769  0.00  0.00    +0.231 C 
ATOM     48  N   ALA A   8       6.314  -0.148  20.401  0.00  0.00    -0.305 N 
ATOM     49  H   ALA A   8       6.956   0.482  20.878  0.00  0.00    +0.149 HD
ATOM     50  O   GLY A   7       5.541  -2.288  20.165  0.00  0.00    -0.274 OA
BRANCH  48  51
ATOM     51  CA  ALA A   8       5.594   0.391  19.257  0.00  0.00    +0.133 C 
ATOM     52  CB  ALA A   8       4.887   1.695  19.595  0.00  0.00    +0.035 C 
BRANCH  51  53
ATOM     53  C   ALA A   8       6.592   0.633  18.134  0.00  0.00    +0.245 C 
ATOM     54  O   ALA A   8       6.345   1.315  17.140  0.00  0.00    -0.299 OA
ENDBRANCH  51  53
ENDBRANCH  48  51
ENDBRANCH  46  47
ENDBRANCH  44  46
ENDBRANCH  41  42
BRANCH  41  55
ATOM     55  CB  VAL A   6       9.931   1.116  24.511  0.00  0.00    +0.012 C 
ATOM     56  CG2 VAL A   6      11.414   1.021  24.128  0.00  0.00    +0.009 C 
ATOM     57  CG1 VAL A   6       9.589  -0.084  25.404  0.00  0.00    +0.009 C 
ENDBRANCH  41  55
ENDBRANCH  38  41
ENDBRANCH  35  37
ENDBRANCH  33  35
ENDBRANCH   1  31
BRANCH   1  58
ATOM     58  CB  GLN A   4       6.137   1.836  27.376  0.00  0.00    +0.041 C 
BRANCH  58  59
ATOM     59  CG  GLN A   4       6.461   1.184  28.719  0.00  0.00    +0.098 C 
BRANCH  59  60
ATOM     60  CD  GLN A   4       7.510   1.934  29.513  0.00  0.00    +0.211 C 
ATOM     61  OE1 GLN A   4       7.546   3.159  29.572  0.00  0.00    -0.276 OA
ATOM     62  NE2 GLN A   4       8.480   1.185  30.106  0.00  0.00    -0.329 N 
ATOM     63 HE21 GLN A   4       8.475   0.177  30.140  0.00  0.00    +0.145 HD
ATOM     64 HE22 GLN A   4       9.178   1.681  30.646  0.00  0.00    +0.145 HD
ENDBRANCH  59  60
ENDBRANCH  58  59
ENDBRANCH   1  58
TORSDOF 25
ENDMDL
MODEL 19
REMARK VINA RESULT:      -6.0      2.232      7.526
REMARK  Name = TVLQAVGA-mmff94.pdb
REMARK  34 active torsions:
REMARK  status: ('A' for Active; 'I' for Inactive)
REMARK    1  A    between atoms: _1  and  _2
REMARK    2  A    between atoms: _2  and  _3
REMARK    3  A    between atoms: _2  and  _5
REMARK    4  A    between atoms: _5  and  _6
REMARK    5  A    between atoms: _5  and  _7
REMARK    6  A    between atoms: _15  and  _16
REMARK    7  A    between atoms: _16  and  _17
REMARK    8  A    between atoms: _16  and  _19
REMARK    9  A    between atoms: _19  and  _20
REMARK   10  A    between atoms: _19  and  _21
REMARK   11  A    between atoms: _31  and  _32
REMARK   12  A    between atoms: _32  and  _33
REMARK   13  A    between atoms: _32  and  _35
REMARK   14  A    between atoms: _35  and  _36
REMARK   15  A    between atoms: _36  and  _37
REMARK   16  A    between atoms: _36  and  _38
REMARK   17  A    between atoms: _50  and  _51
REMARK   18  A    between atoms: _51  and  _52
REMARK   19  A    between atoms: _51  and  _54
REMARK   20  A    between atoms: _54  and  _55
REMARK   21  A    between atoms: _55  and  _56
REMARK   22  A    between atoms: _67  and  _68
REMARK   23  A    between atoms: _68  and  _69
REMARK   24  A    between atoms: _68  and  _71
REMARK   25  A    between atoms: _77  and  _78
REMARK   26  A    between atoms: _78  and  _79
REMARK   27  A    between atoms: _78  and  _81
REMARK   28  A    between atoms: _81  and  _82
REMARK   29  A    between atoms: _81  and  _83
REMARK   30  A    between atoms: _93  and  _94
REMARK   31  A    between atoms: _94  and  _95
REMARK   32  A    between atoms: _100  and  _101
REMARK   33  A    between atoms: _101  and  _102
REMARK   34  A    between atoms: _101  and  _104
REMARK                            x       y       z     vdW  Elec       q    Type
REMARK                         _______ _______ _______ _____ _____    ______ ____
ROOT
ATOM      1  CA  GLN A   4       7.199  -2.013  22.628  0.00  0.00    +0.159 C 
ENDROOT
BRANCH   1   4
ATOM      2  C   LEU A   3       6.855  -1.488  25.036  0.00  0.00    +0.234 C 
ATOM      3  O   LEU A   3       7.813  -2.175  25.392  0.00  0.00    -0.274 OA
ATOM      4  N   GLN A   4       6.495  -1.342  23.719  0.00  0.00    -0.302 N 
ATOM      5  H   GLN A   4       5.669  -0.805  23.465  0.00  0.00    +0.150 HD
BRANCH   2   6
ATOM      6  CA  LEU A   3       5.992  -0.698  26.042  0.00  0.00    +0.159 C 
BRANCH   6   9
ATOM      7  C   VAL A   2       3.875  -1.683  26.908  0.00  0.00    +0.234 C 
ATOM      8  O   VAL A   2       3.170  -0.795  26.429  0.00  0.00    -0.274 OA
ATOM      9  N   LEU A   3       5.244  -1.688  26.812  0.00  0.00    -0.302 N 
ATOM     10  H   LEU A   3       5.769  -2.504  27.116  0.00  0.00    +0.150 HD
BRANCH   7  11
ATOM     11  CA  VAL A   2       3.266  -2.884  27.660  0.00  0.00    +0.161 C 
BRANCH  11  13
ATOM     12  C   THR A   1       4.388  -5.100  27.810  0.00  0.00    +0.233 C 
ATOM     13  N   VAL A   2       4.411  -3.738  27.978  0.00  0.00    -0.302 N 
ATOM     14  H   VAL A   2       5.293  -3.257  28.133  0.00  0.00    +0.150 HD
ATOM     15  O   THR A   1       3.374  -5.724  27.503  0.00  0.00    -0.274 OA
BRANCH  12  16
ATOM     16  CA  THR A   1       5.729  -5.800  28.075  0.00  0.00    +0.166 C 
BRANCH  16  17
ATOM     17  N   THR A   1       5.533  -7.278  28.012  0.00  0.00    -0.318 NA
ATOM     18  H1  THR A   1       5.328  -7.607  28.957  0.00  0.00    +0.119 HD
ATOM     19  H2  THR A   1       4.657  -7.438  27.501  0.00  0.00    +0.119 HD
ENDBRANCH  16  17
BRANCH  16  20
ATOM     20  CB  THR A   1       6.765  -5.382  27.012  0.00  0.00    +0.137 C 
ATOM     21  CG2 THR A   1       6.194  -5.368  25.601  0.00  0.00    +0.040 C 
BRANCH  20  22
ATOM     22  OG1 THR A   1       7.227  -4.058  27.317  0.00  0.00    -0.390 OA
ATOM     23  HG1 THR A   1       7.086  -3.964  28.282  0.00  0.00    +0.210 HD
ENDBRANCH  20  22
ENDBRANCH  16  20
ENDBRANCH  12  16
ENDBRANCH  11  13
BRANCH  11  24
ATOM     24  CB  VAL A   2       2.525  -2.432  28.938  0.00  0.00    +0.012 C 
ATOM     25  CG2 VAL A   2       3.498  -2.207  30.103  0.00  0.00    +0.009 C 
ATOM     26  CG1 VAL A   2       1.457  -3.441  29.374  0.00  0.00    +0.009 C 
ENDBRANCH  11  24
ENDBRANCH   7  11
ENDBRANCH   6   9
BRANCH   6  27
ATOM     27  CB  LEU A   3       6.900   0.157  26.939  0.00  0.00    +0.034 C 
BRANCH  27  28
ATOM     28  CG  LEU A   3       6.278   0.587  28.282  0.00  0.00    -0.015 C 
ATOM     29  CD2 LEU A   3       7.363   1.170  29.191  0.00  0.00    +0.007 C 
ATOM     30  CD1 LEU A   3       5.162   1.619  28.098  0.00  0.00    +0.007 C 
ENDBRANCH  27  28
ENDBRANCH   6  27
ENDBRANCH   2   6
ENDBRANCH   1   4
BRANCH   1  31
ATOM     31  C   GLN A   4       7.484  -0.934  21.567  0.00  0.00    +0.234 C 
ATOM     32  O   GLN A   4       8.607  -0.774  21.090  0.00  0.00    -0.274 OA
ATOM     33  N   ALA A   5       6.418  -0.133  21.247  0.00  0.00    -0.303 N 
ATOM     34  H   ALA A   5       5.489  -0.320  21.618  0.00  0.00    +0.149 HD
BRANCH  33  35
ATOM     35  CA  ALA A   5       6.537   1.029  20.376  0.00  0.00    +0.156 C 
ATOM     36  CB  ALA A   5       5.669   0.901  19.133  0.00  0.00    +0.038 C 
BRANCH  35  37
ATOM     37  C   ALA A   5       6.113   2.257  21.197  0.00  0.00    +0.234 C 
ATOM     38  N   VAL A   6       4.759   2.452  21.287  0.00  0.00    -0.302 N 
ATOM     39  H   VAL A   6       4.112   1.775  20.888  0.00  0.00    +0.150 HD
ATOM     40  O   ALA A   5       6.939   2.995  21.732  0.00  0.00    -0.274 OA
BRANCH  38  41
ATOM     41  CA  VAL A   6       4.150   3.570  22.013  0.00  0.00    +0.161 C 
BRANCH  41  42
ATOM     42  C   VAL A   6       4.449   3.277  23.502  0.00  0.00    +0.234 C 
ATOM     43  O   VAL A   6       3.851   2.400  24.126  0.00  0.00    -0.274 OA
ATOM     44  N   GLY A   7       5.391   4.085  24.081  0.00  0.00    -0.305 N 
ATOM     45  H   GLY A   7       5.867   4.804  23.541  0.00  0.00    +0.149 HD
BRANCH  44  46
ATOM     46  CA  GLY A   7       5.689   4.041  25.500  0.00  0.00    +0.200 C 
BRANCH  46  47
ATOM     47  C   GLY A   7       7.160   3.676  25.684  0.00  0.00    +0.231 C 
ATOM     48  N   ALA A   8       7.709   2.969  24.642  0.00  0.00    -0.305 N 
ATOM     49  H   ALA A   8       7.166   2.781  23.802  0.00  0.00    +0.149 HD
ATOM     50  O   GLY A   7       7.803   4.009  26.678  0.00  0.00    -0.274 OA
BRANCH  48  51
ATOM     51  CA  ALA A   8       9.105   2.558  24.628  0.00  0.00    +0.133 C 
ATOM     52  CB  ALA A   8       9.275   1.148  24.082  0.00  0.00    +0.035 C 
BRANCH  51  53
ATOM     53  C   ALA A   8       9.883   3.534  23.758  0.00  0.00    +0.245 C 
ATOM     54  O   ALA A   8      11.046   3.348  23.400  0.00  0.00    -0.299 OA
ENDBRANCH  51  53
ENDBRANCH  48  51
ENDBRANCH  46  47
ENDBRANCH  44  46
ENDBRANCH  41  42
BRANCH  41  55
ATOM     55  CB  VAL A   6       2.623   3.663  21.750  0.00  0.00    +0.012 C 
ATOM     56  CG2 VAL A   6       2.186   2.786  20.569  0.00  0.00    +0.009 C 
ATOM     57  CG1 VAL A   6       2.157   5.099  21.479  0.00  0.00    +0.009 C 
ENDBRANCH  41  55
ENDBRANCH  38  41
ENDBRANCH  35  37
ENDBRANCH  33  35
ENDBRANCH   1  31
BRANCH   1  58
ATOM     58  CB  GLN A   4       6.335  -3.145  22.047  0.00  0.00    +0.041 C 
BRANCH  58  59
ATOM     59  CG  GLN A   4       7.029  -4.506  22.034  0.00  0.00    +0.098 C 
BRANCH  59  60
ATOM     60  CD  GLN A   4       6.217  -5.588  21.353  0.00  0.00    +0.211 C 
ATOM     61  OE1 GLN A   4       5.974  -5.576  20.151  0.00  0.00    -0.276 OA
ATOM     62  NE2 GLN A   4       5.688  -6.551  22.155  0.00  0.00    -0.329 N 
ATOM     63 HE21 GLN A   4       5.895  -6.647  23.138  0.00  0.00    +0.145 HD
ATOM     64 HE22 GLN A   4       5.152  -7.282  21.704  0.00  0.00    +0.145 HD
ENDBRANCH  59  60
ENDBRANCH  58  59
ENDBRANCH   1  58
TORSDOF 25
ENDMDL
MODEL 20
REMARK VINA RESULT:      -6.0      2.160      8.224
REMARK  Name = TVLQAVGA-mmff94.pdb
REMARK  34 active torsions:
REMARK  status: ('A' for Active; 'I' for Inactive)
REMARK    1  A    between atoms: _1  and  _2
REMARK    2  A    between atoms: _2  and  _3
REMARK    3  A    between atoms: _2  and  _5
REMARK    4  A    between atoms: _5  and  _6
REMARK    5  A    between atoms: _5  and  _7
REMARK    6  A    between atoms: _15  and  _16
REMARK    7  A    between atoms: _16  and  _17
REMARK    8  A    between atoms: _16  and  _19
REMARK    9  A    between atoms: _19  and  _20
REMARK   10  A    between atoms: _19  and  _21
REMARK   11  A    between atoms: _31  and  _32
REMARK   12  A    between atoms: _32  and  _33
REMARK   13  A    between atoms: _32  and  _35
REMARK   14  A    between atoms: _35  and  _36
REMARK   15  A    between atoms: _36  and  _37
REMARK   16  A    between atoms: _36  and  _38
REMARK   17  A    between atoms: _50  and  _51
REMARK   18  A    between atoms: _51  and  _52
REMARK   19  A    between atoms: _51  and  _54
REMARK   20  A    between atoms: _54  and  _55
REMARK   21  A    between atoms: _55  and  _56
REMARK   22  A    between atoms: _67  and  _68
REMARK   23  A    between atoms: _68  and  _69
REMARK   24  A    between atoms: _68  and  _71
REMARK   25  A    between atoms: _77  and  _78
REMARK   26  A    between atoms: _78  and  _79
REMARK   27  A    between atoms: _78  and  _81
REMARK   28  A    between atoms: _81  and  _82
REMARK   29  A    between atoms: _81  and  _83
REMARK   30  A    between atoms: _93  and  _94
REMARK   31  A    between atoms: _94  and  _95
REMARK   32  A    between atoms: _100  and  _101
REMARK   33  A    between atoms: _101  and  _102
REMARK   34  A    between atoms: _101  and  _104
REMARK                            x       y       z     vdW  Elec       q    Type
REMARK                         _______ _______ _______ _____ _____    ______ ____
ROOT
ATOM      1  CA  GLN A   4       6.542   0.990  21.539  0.00  0.00    +0.159 C 
ENDROOT
BRANCH   1   4
ATOM      2  C   LEU A   3       6.217   1.260  23.992  0.00  0.00    +0.234 C 
ATOM      3  O   LEU A   3       6.193   0.045  24.191  0.00  0.00    -0.274 OA
ATOM      4  N   GLN A   4       6.395   1.805  22.744  0.00  0.00    -0.302 N 
ATOM      5  H   GLN A   4       6.361   2.813  22.609  0.00  0.00    +0.150 HD
BRANCH   2   6
ATOM      6  CA  LEU A   3       6.081   2.284  25.139  0.00  0.00    +0.159 C 
BRANCH   6   9
ATOM      7  C   VAL A   2       4.870   2.074  27.304  0.00  0.00    +0.234 C 
ATOM      8  O   VAL A   2       4.537   3.259  27.327  0.00  0.00    -0.274 OA
ATOM      9  N   LEU A   3       5.653   1.533  26.316  0.00  0.00    -0.302 N 
ATOM     10  H   LEU A   3       5.796   0.527  26.277  0.00  0.00    +0.150 HD
BRANCH   7  11
ATOM     11  CA  VAL A   2       4.418   1.085  28.398  0.00  0.00    +0.161 C 
BRANCH  11  13
ATOM     12  C   THR A   1       3.308  -0.911  27.410  0.00  0.00    +0.233 C 
ATOM     13  N   VAL A   2       4.448  -0.225  27.745  0.00  0.00    -0.302 N 
ATOM     14  H   VAL A   2       5.347  -0.510  27.365  0.00  0.00    +0.150 HD
ATOM     15  O   THR A   1       2.181  -0.548  27.738  0.00  0.00    -0.274 OA
BRANCH  12  16
ATOM     16  CA  THR A   1       3.550  -2.203  26.615  0.00  0.00    +0.166 C 
BRANCH  16  17
ATOM     17  N   THR A   1       4.767  -2.037  25.767  0.00  0.00    -0.318 NA
ATOM     18  H1  THR A   1       4.678  -2.664  24.965  0.00  0.00    +0.119 HD
ATOM     19  H2  THR A   1       4.711  -1.100  25.352  0.00  0.00    +0.119 HD
ENDBRANCH  16  17
BRANCH  16  20
ATOM     20  CB  THR A   1       3.764  -3.388  27.578  0.00  0.00    +0.137 C 
ATOM     21  CG2 THR A   1       5.144  -4.016  27.448  0.00  0.00    +0.040 C 
BRANCH  20  22
ATOM     22  OG1 THR A   1       3.616  -2.917  28.925  0.00  0.00    -0.390 OA
ATOM     23  HG1 THR A   1       3.270  -2.005  28.831  0.00  0.00    +0.210 HD
ENDBRANCH  20  22
ENDBRANCH  16  20
ENDBRANCH  12  16
ENDBRANCH  11  13
BRANCH  11  24
ATOM     24  CB  VAL A   2       5.360   1.129  29.622  0.00  0.00    +0.012 C 
ATOM     25  CG2 VAL A   2       5.050   2.329  30.527  0.00  0.00    +0.009 C 
ATOM     26  CG1 VAL A   2       6.836   1.187  29.212  0.00  0.00    +0.009 C 
ENDBRANCH  11  24
ENDBRANCH   7  11
ENDBRANCH   6   9
BRANCH   6  27
ATOM     27  CB  LEU A   3       7.431   2.982  25.366  0.00  0.00    +0.034 C 
BRANCH  27  28
ATOM     28  CG  LEU A   3       7.412   4.514  25.199  0.00  0.00    -0.015 C 
ATOM     29  CD2 LEU A   3       6.060   4.956  24.634  0.00  0.00    +0.007 C 
ATOM     30  CD1 LEU A   3       7.673   5.243  26.520  0.00  0.00    +0.007 C 
ENDBRANCH  27  28
ENDBRANCH   6  27
ENDBRANCH   2   6
ENDBRANCH   1   4
BRANCH   1  31
ATOM     31  C   GLN A   4       8.022   0.565  21.482  0.00  0.00    +0.234 C 
ATOM     32  O   GLN A   4       8.497   0.006  20.494  0.00  0.00    -0.274 OA
ATOM     33  N   ALA A   5       8.740   0.797  22.626  0.00  0.00    -0.303 N 
ATOM     34  H   ALA A   5       8.336   1.306  23.409  0.00  0.00    +0.149 HD
BRANCH  33  35
ATOM     35  CA  ALA A   5      10.109   0.329  22.806  0.00  0.00    +0.156 C 
ATOM     36  CB  ALA A   5      10.808   1.041  23.955  0.00  0.00    +0.038 C 
BRANCH  35  37
ATOM     37  C   ALA A   5      10.040  -1.182  23.079  0.00  0.00    +0.234 C 
ATOM     38  N   VAL A   6       9.051  -1.567  23.947  0.00  0.00    -0.302 N 
ATOM     39  H   VAL A   6       8.387  -0.886  24.307  0.00  0.00    +0.150 HD
ATOM     40  O   ALA A   5      10.818  -1.972  22.546  0.00  0.00    -0.274 OA
BRANCH  38  41
ATOM     41  CA  VAL A   6       8.825  -2.958  24.347  0.00  0.00    +0.161 C 
BRANCH  41  42
ATOM     42  C   VAL A   6       7.820  -3.505  23.307  0.00  0.00    +0.234 C 
ATOM     43  O   VAL A   6       8.110  -4.428  22.544  0.00  0.00    -0.274 OA
ATOM     44  N   GLY A   7       6.609  -2.867  23.268  0.00  0.00    -0.305 N 
ATOM     45  H   GLY A   7       6.399  -2.106  23.909  0.00  0.00    +0.149 HD
BRANCH  44  46
ATOM     46  CA  GLY A   7       5.607  -3.158  22.261  0.00  0.00    +0.200 C 
BRANCH  46  47
ATOM     47  C   GLY A   7       4.855  -4.425  22.666  0.00  0.00    +0.231 C 
ATOM     48  N   ALA A   8       4.064  -4.289  23.780  0.00  0.00    -0.305 N 
ATOM     49  H   ALA A   8       3.959  -3.384  24.232  0.00  0.00    +0.149 HD
ATOM     50  O   GLY A   7       4.941  -5.474  22.029  0.00  0.00    -0.274 OA
BRANCH  48  51
ATOM     51  CA  ALA A   8       3.253  -5.381  24.298  0.00  0.00    +0.133 C 
ATOM     52  CB  ALA A   8       2.335  -5.961  23.232  0.00  0.00    +0.035 C 
BRANCH  51  53
ATOM     53  C   ALA A   8       4.186  -6.469  24.808  0.00  0.00    +0.245 C 
ATOM     54  O   ALA A   8       4.081  -7.656  24.499  0.00  0.00    -0.299 OA
ENDBRANCH  51  53
ENDBRANCH  48  51
ENDBRANCH  46  47
ENDBRANCH  44  46
ENDBRANCH  41  42
BRANCH  41  55
ATOM     55  CB  VAL A   6       8.258  -3.057  25.789  0.00  0.00    +0.012 C 
ATOM     56  CG2 VAL A   6       8.429  -1.746  26.568  0.00  0.00    +0.009 C 
ATOM     57  CG1 VAL A   6       8.905  -4.185  26.602  0.00  0.00    +0.009 C 
ENDBRANCH  41  55
ENDBRANCH  38  41
ENDBRANCH  35  37
ENDBRANCH  33  35
ENDBRANCH   1  31
BRANCH   1  58
ATOM     58  CB  GLN A   4       6.150   1.799  20.292  0.00  0.00    +0.041 C 
BRANCH  58  59
ATOM     59  CG  GLN A   4       5.220   1.051  19.338  0.00  0.00    +0.098 C 
BRANCH  59  60
ATOM     60  CD  GLN A   4       5.936   0.461  18.141  0.00  0.00    +0.211 C 
ATOM     61  OE1 GLN A   4       6.693   1.116  17.433  0.00  0.00    -0.276 OA
ATOM     62  NE2 GLN A   4       5.639  -0.829  17.826  0.00  0.00    -0.329 N 
ATOM     63 HE21 GLN A   4       5.070  -1.435  18.398  0.00  0.00    +0.145 HD
ATOM     64 HE22 GLN A   4       6.122  -1.232  17.033  0.00  0.00    +0.145 HD
ENDBRANCH  59  60
ENDBRANCH  58  59
ENDBRANCH   1  58
TORSDOF 25
ENDMDL
