MODEL 1
REMARK VINA RESULT:      -5.6      0.000      0.000
REMARK  Name = VKLQNNEL-mmff94.pdb
REMARK  43 active torsions:
REMARK  status: ('A' for Active; 'I' for Inactive)
REMARK    1  A    between atoms: _1  and  _2
REMARK    2  A    between atoms: _2  and  _3
REMARK    3  A    between atoms: _2  and  _5
REMARK    4  A    between atoms: _5  and  _6
REMARK    5  A    between atoms: _5  and  _7
REMARK    6  A    between atoms: _17  and  _18
REMARK    7  A    between atoms: _18  and  _19
REMARK    8  A    between atoms: _18  and  _21
REMARK    9  A    between atoms: _21  and  _22
REMARK   10  A    between atoms: _22  and  _23
REMARK   11  A    between atoms: _23  and  _24
REMARK   12  A    between atoms: _24  and  _25
REMARK   13  A    between atoms: _39  and  _40
REMARK   14  A    between atoms: _40  and  _41
REMARK   15  A    between atoms: _40  and  _43
REMARK   16  A    between atoms: _43  and  _44
REMARK   17  A    between atoms: _44  and  _45
REMARK   18  A    between atoms: _44  and  _46
REMARK   19  A    between atoms: _58  and  _59
REMARK   20  A    between atoms: _59  and  _60
REMARK   21  A    between atoms: _59  and  _62
REMARK   22  A    between atoms: _62  and  _63
REMARK   23  A    between atoms: _63  and  _64
REMARK   24  A    between atoms: _75  and  _76
REMARK   25  A    between atoms: _76  and  _77
REMARK   26  A    between atoms: _76  and  _79
REMARK   27  A    between atoms: _79  and  _80
REMARK   28  A    between atoms: _89  and  _90
REMARK   29  A    between atoms: _90  and  _91
REMARK   30  A    between atoms: _90  and  _93
REMARK   31  A    between atoms: _93  and  _94
REMARK   32  A    between atoms: _103  and  _104
REMARK   33  A    between atoms: _104  and  _105
REMARK   34  A    between atoms: _104  and  _107
REMARK   35  A    between atoms: _107  and  _108
REMARK   36  A    between atoms: _108  and  _109
REMARK   37  A    between atoms: _109  and  _110
REMARK   38  A    between atoms: _118  and  _119
REMARK   39  A    between atoms: _119  and  _120
REMARK   40  A    between atoms: _119  and  _122
REMARK   41  A    between atoms: _122  and  _123
REMARK   42  A    between atoms: _123  and  _124
REMARK   43  A    between atoms: _123  and  _125
REMARK                            x       y       z     vdW  Elec       q    Type
REMARK                         _______ _______ _______ _____ _____    ______ ____
ROOT
ATOM      1  C   GLN A   4      10.259   1.283  24.402  0.00  0.00    +0.234 C 
ATOM      2  N   ASN A   5       9.229   0.430  24.706  0.00  0.00    -0.302 N 
ATOM      3  H   ASN A   5       8.262   0.740  24.669  0.00  0.00    +0.150 HD
ATOM      4  O   GLN A   4      11.443   0.957  24.498  0.00  0.00    -0.274 OA
ENDROOT
BRANCH   2   5
ATOM      5  CA  ASN A   5       9.471  -0.894  25.279  0.00  0.00    +0.168 C 
BRANCH   5   6
ATOM      6  C   ASN A   5       9.290  -1.907  24.140  0.00  0.00    +0.234 C 
ATOM      7  O   ASN A   5      10.111  -2.023  23.230  0.00  0.00    -0.274 OA
ATOM      8  N   ASN A   6       8.123  -2.632  24.182  0.00  0.00    -0.302 N 
ATOM      9  H   ASN A   6       7.462  -2.522  24.947  0.00  0.00    +0.150 HD
BRANCH   8  10
ATOM     10  CA  ASN A   6       7.817  -3.679  23.208  0.00  0.00    +0.168 C 
BRANCH  10  11
ATOM     11  C   ASN A   6       6.307  -3.596  22.926  0.00  0.00    +0.234 C 
ATOM     12  N   GLU A   7       5.511  -4.315  23.781  0.00  0.00    -0.302 N 
ATOM     13  H   GLU A   7       5.917  -4.958  24.456  0.00  0.00    +0.150 HD
ATOM     14  O   ASN A   6       5.855  -2.889  22.026  0.00  0.00    -0.274 OA
BRANCH  12  15
ATOM     15  CA  GLU A   7       4.047  -4.317  23.699  0.00  0.00    +0.159 C 
BRANCH  15  16
ATOM     16  C   GLU A   7       3.559  -3.837  25.078  0.00  0.00    +0.234 C 
ATOM     17  N   LEU A   8       4.341  -4.212  26.139  0.00  0.00    -0.304 N 
ATOM     18  H   LEU A   8       5.219  -4.701  25.980  0.00  0.00    +0.149 HD
ATOM     19  O   GLU A   7       2.549  -3.145  25.195  0.00  0.00    -0.274 OA
BRANCH  17  20
ATOM     20  CA  LEU A   8       4.109  -3.756  27.507  0.00  0.00    +0.136 C 
BRANCH  20  21
ATOM     21  C   LEU A   8       4.943  -2.492  27.694  0.00  0.00    +0.245 C 
ATOM     22  O   LEU A   8       4.458  -1.361  27.716  0.00  0.00    -0.299 OA
ENDBRANCH  20  21
BRANCH  20  23
ATOM     23  CB  LEU A   8       4.536  -4.797  28.549  0.00  0.00    +0.032 C 
BRANCH  23  24
ATOM     24  CG  LEU A   8       3.384  -5.408  29.371  0.00  0.00    -0.015 C 
ATOM     25  CD2 LEU A   8       3.320  -6.930  29.233  0.00  0.00    +0.007 C 
ATOM     26  CD1 LEU A   8       2.050  -4.801  28.928  0.00  0.00    +0.007 C 
ENDBRANCH  23  24
ENDBRANCH  20  23
ENDBRANCH  17  20
ENDBRANCH  15  16
BRANCH  15  27
ATOM     27  CB  GLU A   7       3.514  -5.721  23.380  0.00  0.00    +0.038 C 
BRANCH  27  28
ATOM     28  CG  GLU A   7       2.571  -6.277  24.446  0.00  0.00    +0.059 C 
BRANCH  28  29
ATOM     29  CD  GLU A   7       3.123  -7.546  25.043  0.00  0.00    +0.023 C 
ATOM     30  OE1 GLU A   7       2.686  -8.659  24.794  0.00  0.00    -0.851 OA
BRANCH  29  31
ATOM     31  OE2 GLU A   7       4.171  -7.344  25.870  0.00  0.00    -0.526 OA
ATOM     32  HE2 GLU A   7       3.964  -6.833  26.674  0.00  0.00    +0.290 HD
ENDBRANCH  29  31
ENDBRANCH  28  29
ENDBRANCH  27  28
ENDBRANCH  15  27
ENDBRANCH  12  15
ENDBRANCH  10  11
BRANCH  10  33
ATOM     33  CB  ASN A   6       8.138  -5.078  23.733  0.00  0.00    +0.127 C 
BRANCH  33  34
ATOM     34  CG  ASN A   6       8.390  -5.112  25.222  0.00  0.00    +0.213 C 
ATOM     35  ND2 ASN A   6       9.616  -5.568  25.606  0.00  0.00    -0.329 N 
ATOM     36 HD21 ASN A   6      10.414  -5.546  24.986  0.00  0.00    +0.145 HD
ATOM     37 HD22 ASN A   6       9.825  -5.488  26.593  0.00  0.00    +0.145 HD
ATOM     38  OD1 ASN A   6       7.552  -4.783  26.056  0.00  0.00    -0.276 OA
ENDBRANCH  33  34
ENDBRANCH  10  33
ENDBRANCH   8  10
ENDBRANCH   5   6
BRANCH   5  39
ATOM     39  CB  ASN A   5       8.492  -1.249  26.396  0.00  0.00    +0.127 C 
BRANCH  39  40
ATOM     40  CG  ASN A   5       7.741  -0.044  26.899  0.00  0.00    +0.213 C 
ATOM     41  OD1 ASN A   5       6.879   0.527  26.237  0.00  0.00    -0.276 OA
ATOM     42  ND2 ASN A   5       8.079   0.392  28.143  0.00  0.00    -0.329 N 
ATOM     43 HD21 ASN A   5       7.636   1.244  28.465  0.00  0.00    +0.145 HD
ATOM     44 HD22 ASN A   5       8.894   0.075  28.647  0.00  0.00    +0.145 HD
ENDBRANCH  39  40
ENDBRANCH   5  39
ENDBRANCH   2   5
BRANCH   1  45
ATOM     45  CA  GLN A   4       9.847   2.678  23.896  0.00  0.00    +0.159 C 
BRANCH  45  48
ATOM     46  C   LEU A   3       8.368   4.294  25.080  0.00  0.00    +0.234 C 
ATOM     47  O   LEU A   3       9.169   5.223  24.947  0.00  0.00    -0.274 OA
ATOM     48  N   GLN A   4       8.626   3.026  24.620  0.00  0.00    -0.302 N 
ATOM     49  H   GLN A   4       7.952   2.276  24.766  0.00  0.00    +0.150 HD
BRANCH  46  50
ATOM     50  CA  LEU A   3       7.015   4.464  25.805  0.00  0.00    +0.159 C 
BRANCH  50  52
ATOM     51  C   LYS A   2       5.290   4.415  24.010  0.00  0.00    +0.234 C 
ATOM     52  N   LEU A   3       6.022   3.778  24.982  0.00  0.00    -0.302 N 
ATOM     53  H   LEU A   3       6.058   2.764  25.002  0.00  0.00    +0.150 HD
ATOM     54  O   LYS A   2       5.292   5.633  23.848  0.00  0.00    -0.274 OA
BRANCH  51  55
ATOM     55  CA  LYS A   2       4.497   3.472  23.088  0.00  0.00    +0.159 C 
BRANCH  55  58
ATOM     56  C   VAL A   1       6.325   2.001  22.297  0.00  0.00    +0.231 C 
ATOM     57  O   VAL A   1       6.703   2.824  21.464  0.00  0.00    -0.274 OA
ATOM     58  N   LYS A   2       5.214   2.204  23.079  0.00  0.00    -0.303 N 
ATOM     59  H   LYS A   2       4.934   1.508  23.765  0.00  0.00    +0.149 HD
BRANCH  56  60
ATOM     60  CA  VAL A   1       7.057   0.660  22.550  0.00  0.00    +0.140 C 
BRANCH  60  61
ATOM     61  N   VAL A   1       6.228  -0.148  23.469  0.00  0.00    -0.320 NA
ATOM     62  H1  VAL A   1       6.830  -0.454  24.238  0.00  0.00    +0.119 HD
ATOM     63  H2  VAL A   1       5.961  -1.013  22.997  0.00  0.00    +0.119 HD
ENDBRANCH  60  61
BRANCH  60  64
ATOM     64  CB  VAL A   1       7.318  -0.097  21.224  0.00  0.00    +0.009 C 
ATOM     65  CG2 VAL A   1       6.374   0.355  20.102  0.00  0.00    +0.009 C 
ATOM     66  CG1 VAL A   1       8.766   0.084  20.747  0.00  0.00    +0.009 C 
ENDBRANCH  60  64
ENDBRANCH  56  60
ENDBRANCH  55  58
BRANCH  55  67
ATOM     67  CB  LYS A   2       3.057   3.294  23.602  0.00  0.00    +0.032 C 
BRANCH  67  68
ATOM     68  CG  LYS A   2       2.939   3.526  25.111  0.00  0.00    +0.007 C 
BRANCH  68  69
ATOM     69  CD  LYS A   2       2.000   2.537  25.804  0.00  0.00    +0.051 C 
BRANCH  69  70
ATOM     70  CE  LYS A   2       2.714   1.911  27.000  0.00  0.00    +0.127 C 
BRANCH  70  71
ATOM     71  NZ  LYS A   2       4.047   1.417  26.593  0.00  0.00    +0.219 N 
ATOM     72  HZ1 LYS A   2       4.064   1.089  25.620  0.00  0.00    +0.199 HD
ATOM     73  HZ2 LYS A   2       4.314   0.629  27.204  0.00  0.00    +0.199 HD
ATOM     74  HZ3 LYS A   2       4.770   2.136  26.711  0.00  0.00    +0.199 HD
ENDBRANCH  70  71
ENDBRANCH  69  70
ENDBRANCH  68  69
ENDBRANCH  67  68
ENDBRANCH  55  67
ENDBRANCH  51  55
ENDBRANCH  50  52
BRANCH  50  75
ATOM     75  CB  LEU A   3       7.068   3.875  27.218  0.00  0.00    +0.034 C 
BRANCH  75  76
ATOM     76  CG  LEU A   3       6.442   4.775  28.304  0.00  0.00    -0.015 C 
ATOM     77  CD2 LEU A   3       4.915   4.730  28.200  0.00  0.00    +0.007 C 
ATOM     78  CD1 LEU A   3       6.871   4.364  29.714  0.00  0.00    +0.007 C 
ENDBRANCH  75  76
ENDBRANCH  50  75
ENDBRANCH  46  50
ENDBRANCH  45  48
BRANCH  45  79
ATOM     79  CB  GLN A   4      10.953   3.701  24.185  0.00  0.00    +0.041 C 
BRANCH  79  80
ATOM     80  CG  GLN A   4      11.772   4.068  22.952  0.00  0.00    +0.098 C 
BRANCH  80  81
ATOM     81  CD  GLN A   4      12.661   5.253  23.277  0.00  0.00    +0.211 C 
ATOM     82  OE1 GLN A   4      12.661   5.821  24.369  0.00  0.00    -0.276 OA
ATOM     83  NE2 GLN A   4      13.517   5.610  22.279  0.00  0.00    -0.329 N 
ATOM     84 HE21 GLN A   4      13.484   5.198  21.350  0.00  0.00    +0.145 HD
ATOM     85 HE22 GLN A   4      14.137   6.399  22.409  0.00  0.00    +0.145 HD
ENDBRANCH  80  81
ENDBRANCH  79  80
ENDBRANCH  45  79
ENDBRANCH   1  45
TORSDOF 37
ENDMDL
MODEL 2
REMARK VINA RESULT:      -5.5      2.413      4.837
REMARK  Name = VKLQNNEL-mmff94.pdb
REMARK  43 active torsions:
REMARK  status: ('A' for Active; 'I' for Inactive)
REMARK    1  A    between atoms: _1  and  _2
REMARK    2  A    between atoms: _2  and  _3
REMARK    3  A    between atoms: _2  and  _5
REMARK    4  A    between atoms: _5  and  _6
REMARK    5  A    between atoms: _5  and  _7
REMARK    6  A    between atoms: _17  and  _18
REMARK    7  A    between atoms: _18  and  _19
REMARK    8  A    between atoms: _18  and  _21
REMARK    9  A    between atoms: _21  and  _22
REMARK   10  A    between atoms: _22  and  _23
REMARK   11  A    between atoms: _23  and  _24
REMARK   12  A    between atoms: _24  and  _25
REMARK   13  A    between atoms: _39  and  _40
REMARK   14  A    between atoms: _40  and  _41
REMARK   15  A    between atoms: _40  and  _43
REMARK   16  A    between atoms: _43  and  _44
REMARK   17  A    between atoms: _44  and  _45
REMARK   18  A    between atoms: _44  and  _46
REMARK   19  A    between atoms: _58  and  _59
REMARK   20  A    between atoms: _59  and  _60
REMARK   21  A    between atoms: _59  and  _62
REMARK   22  A    between atoms: _62  and  _63
REMARK   23  A    between atoms: _63  and  _64
REMARK   24  A    between atoms: _75  and  _76
REMARK   25  A    between atoms: _76  and  _77
REMARK   26  A    between atoms: _76  and  _79
REMARK   27  A    between atoms: _79  and  _80
REMARK   28  A    between atoms: _89  and  _90
REMARK   29  A    between atoms: _90  and  _91
REMARK   30  A    between atoms: _90  and  _93
REMARK   31  A    between atoms: _93  and  _94
REMARK   32  A    between atoms: _103  and  _104
REMARK   33  A    between atoms: _104  and  _105
REMARK   34  A    between atoms: _104  and  _107
REMARK   35  A    between atoms: _107  and  _108
REMARK   36  A    between atoms: _108  and  _109
REMARK   37  A    between atoms: _109  and  _110
REMARK   38  A    between atoms: _118  and  _119
REMARK   39  A    between atoms: _119  and  _120
REMARK   40  A    between atoms: _119  and  _122
REMARK   41  A    between atoms: _122  and  _123
REMARK   42  A    between atoms: _123  and  _124
REMARK   43  A    between atoms: _123  and  _125
REMARK                            x       y       z     vdW  Elec       q    Type
REMARK                         _______ _______ _______ _____ _____    ______ ____
ROOT
ATOM      1  C   GLN A   4       7.615   1.316  21.233  0.00  0.00    +0.234 C 
ATOM      2  N   ASN A   5       7.435   0.060  20.712  0.00  0.00    -0.302 N 
ATOM      3  H   ASN A   5       8.205  -0.600  20.657  0.00  0.00    +0.150 HD
ATOM      4  O   GLN A   4       6.719   2.161  21.255  0.00  0.00    -0.274 OA
ENDROOT
BRANCH   2   5
ATOM      5  CA  ASN A   5       6.194  -0.322  20.038  0.00  0.00    +0.168 C 
BRANCH   5   6
ATOM      6  C   ASN A   5       5.889  -1.766  20.462  0.00  0.00    +0.234 C 
ATOM      7  O   ASN A   5       5.579  -2.636  19.648  0.00  0.00    -0.274 OA
ATOM      8  N   ASN A   6       5.933  -1.999  21.815  0.00  0.00    -0.302 N 
ATOM      9  H   ASN A   6       6.196  -1.265  22.468  0.00  0.00    +0.150 HD
BRANCH   8  10
ATOM     10  CA  ASN A   6       5.724  -3.329  22.387  0.00  0.00    +0.168 C 
BRANCH  10  11
ATOM     11  C   ASN A   6       4.966  -3.130  23.711  0.00  0.00    +0.234 C 
ATOM     12  N   GLU A   7       3.859  -3.922  23.876  0.00  0.00    -0.302 N 
ATOM     13  H   GLU A   7       3.505  -4.491  23.111  0.00  0.00    +0.150 HD
ATOM     14  O   ASN A   6       5.365  -2.348  24.573  0.00  0.00    -0.274 OA
BRANCH  12  15
ATOM     15  CA  GLU A   7       3.041  -3.909  25.093  0.00  0.00    +0.159 C 
BRANCH  15  16
ATOM     16  C   GLU A   7       3.873  -4.653  26.154  0.00  0.00    +0.234 C 
ATOM     17  N   LEU A   8       4.845  -5.483  25.660  0.00  0.00    -0.304 N 
ATOM     18  H   LEU A   8       5.030  -5.515  24.660  0.00  0.00    +0.149 HD
ATOM     19  O   GLU A   7       3.679  -4.482  27.356  0.00  0.00    -0.274 OA
BRANCH  17  20
ATOM     20  CA  LEU A   8       5.810  -6.180  26.506  0.00  0.00    +0.136 C 
BRANCH  20  21
ATOM     21  C   LEU A   8       5.015  -6.823  27.639  0.00  0.00    +0.245 C 
ATOM     22  O   LEU A   8       5.537  -7.471  28.546  0.00  0.00    -0.299 OA
ENDBRANCH  20  21
BRANCH  20  23
ATOM     23  CB  LEU A   8       6.855  -5.230  27.104  0.00  0.00    +0.032 C 
BRANCH  23  24
ATOM     24  CG  LEU A   8       7.766  -4.531  26.075  0.00  0.00    -0.015 C 
ATOM     25  CD2 LEU A   8       8.966  -5.395  25.683  0.00  0.00    +0.007 C 
ATOM     26  CD1 LEU A   8       8.264  -3.198  26.643  0.00  0.00    +0.007 C 
ENDBRANCH  23  24
ENDBRANCH  20  23
ENDBRANCH  17  20
ENDBRANCH  15  16
BRANCH  15  27
ATOM     27  CB  GLU A   7       1.692  -4.604  24.859  0.00  0.00    +0.038 C 
BRANCH  27  28
ATOM     28  CG  GLU A   7       1.809  -6.106  24.610  0.00  0.00    +0.059 C 
BRANCH  28  29
ATOM     29  CD  GLU A   7       2.206  -6.387  23.185  0.00  0.00    +0.023 C 
ATOM     30  OE1 GLU A   7       1.456  -6.249  22.231  0.00  0.00    -0.851 OA
BRANCH  29  31
ATOM     31  OE2 GLU A   7       3.489  -6.786  23.049  0.00  0.00    -0.526 OA
ATOM     32  HE2 GLU A   7       4.132  -6.062  22.942  0.00  0.00    +0.290 HD
ENDBRANCH  29  31
ENDBRANCH  28  29
ENDBRANCH  27  28
ENDBRANCH  15  27
ENDBRANCH  12  15
ENDBRANCH  10  11
BRANCH  10  33
ATOM     33  CB  ASN A   6       7.039  -4.051  22.683  0.00  0.00    +0.127 C 
BRANCH  33  34
ATOM     34  CG  ASN A   6       7.063  -5.474  22.176  0.00  0.00    +0.213 C 
ATOM     35  ND2 ASN A   6       5.939  -5.894  21.531  0.00  0.00    -0.329 N 
ATOM     36 HD21 ASN A   6       5.293  -5.245  21.103  0.00  0.00    +0.145 HD
ATOM     37 HD22 ASN A   6       5.997  -6.807  21.098  0.00  0.00    +0.145 HD
ATOM     38  OD1 ASN A   6       8.013  -6.234  22.346  0.00  0.00    -0.276 OA
ENDBRANCH  33  34
ENDBRANCH  10  33
ENDBRANCH   8  10
ENDBRANCH   5   6
BRANCH   5  39
ATOM     39  CB  ASN A   5       6.305  -0.284  18.516  0.00  0.00    +0.127 C 
BRANCH  39  40
ATOM     40  CG  ASN A   5       5.866   1.039  17.946  0.00  0.00    +0.213 C 
ATOM     41  OD1 ASN A   5       6.361   1.525  16.934  0.00  0.00    -0.276 OA
ATOM     42  ND2 ASN A   5       4.879   1.684  18.628  0.00  0.00    -0.329 N 
ATOM     43 HD21 ASN A   5       4.625   2.607  18.300  0.00  0.00    +0.145 HD
ATOM     44 HD22 ASN A   5       4.570   1.419  19.552  0.00  0.00    +0.145 HD
ENDBRANCH  39  40
ENDBRANCH   5  39
ENDBRANCH   2   5
BRANCH   1  45
ATOM     45  CA  GLN A   4       9.007   1.603  21.826  0.00  0.00    +0.159 C 
BRANCH  45  48
ATOM     46  C   LEU A   3       7.885   1.103  23.992  0.00  0.00    +0.234 C 
ATOM     47  O   LEU A   3       7.145   0.256  23.488  0.00  0.00    -0.274 OA
ATOM     48  N   GLN A   4       8.799   1.817  23.257  0.00  0.00    -0.302 N 
ATOM     49  H   GLN A   4       9.380   2.526  23.701  0.00  0.00    +0.150 HD
BRANCH  46  50
ATOM     50  CA  LEU A   3       7.829   1.464  25.493  0.00  0.00    +0.159 C 
BRANCH  50  52
ATOM     51  C   LYS A   2       7.401   3.916  25.473  0.00  0.00    +0.234 C 
ATOM     52  N   LEU A   3       6.949   2.625  25.601  0.00  0.00    -0.302 N 
ATOM     53  H   LEU A   3       5.955   2.432  25.547  0.00  0.00    +0.150 HD
ATOM     54  O   LYS A   2       8.591   4.216  25.410  0.00  0.00    -0.274 OA
BRANCH  51  55
ATOM     55  CA  LYS A   2       6.287   4.972  25.358  0.00  0.00    +0.159 C 
BRANCH  55  58
ATOM     56  C   VAL A   1       5.057   4.782  23.219  0.00  0.00    +0.231 C 
ATOM     57  O   VAL A   1       5.656   5.736  22.725  0.00  0.00    -0.274 OA
ATOM     58  N   LYS A   2       5.249   4.389  24.521  0.00  0.00    -0.303 N 
ATOM     59  H   LYS A   2       4.744   3.589  24.896  0.00  0.00    +0.149 HD
BRANCH  56  60
ATOM     60  CA  VAL A   1       4.030   3.930  22.431  0.00  0.00    +0.140 C 
BRANCH  60  61
ATOM     61  N   VAL A   1       4.078   2.550  22.960  0.00  0.00    -0.320 NA
ATOM     62  H1  VAL A   1       4.434   1.947  22.214  0.00  0.00    +0.119 HD
ATOM     63  H2  VAL A   1       3.124   2.224  23.116  0.00  0.00    +0.119 HD
ENDBRANCH  60  61
BRANCH  60  64
ATOM     64  CB  VAL A   1       2.603   4.522  22.546  0.00  0.00    +0.009 C 
ATOM     65  CG2 VAL A   1       1.890   4.586  21.189  0.00  0.00    +0.009 C 
ATOM     66  CG1 VAL A   1       1.733   3.712  23.518  0.00  0.00    +0.009 C 
ENDBRANCH  60  64
ENDBRANCH  56  60
ENDBRANCH  55  58
BRANCH  55  67
ATOM     67  CB  LYS A   2       5.741   5.339  26.750  0.00  0.00    +0.032 C 
BRANCH  67  68
ATOM     68  CG  LYS A   2       4.265   5.747  26.713  0.00  0.00    +0.007 C 
BRANCH  68  69
ATOM     69  CD  LYS A   2       3.388   4.937  27.668  0.00  0.00    +0.051 C 
BRANCH  69  70
ATOM     70  CE  LYS A   2       4.062   3.600  27.967  0.00  0.00    +0.127 C 
BRANCH  70  71
ATOM     71  NZ  LYS A   2       3.084   2.499  27.839  0.00  0.00    +0.219 N 
ATOM     72  HZ1 LYS A   2       2.133   2.838  27.648  0.00  0.00    +0.199 HD
ATOM     73  HZ2 LYS A   2       3.064   1.963  28.721  0.00  0.00    +0.199 HD
ATOM     74  HZ3 LYS A   2       3.351   1.837  27.102  0.00  0.00    +0.199 HD
ENDBRANCH  70  71
ENDBRANCH  69  70
ENDBRANCH  68  69
ENDBRANCH  67  68
ENDBRANCH  55  67
ENDBRANCH  51  55
ENDBRANCH  50  52
BRANCH  50  75
ATOM     75  CB  LEU A   3       7.301   0.289  26.324  0.00  0.00    +0.034 C 
BRANCH  75  76
ATOM     76  CG  LEU A   3       6.283   0.689  27.412  0.00  0.00    -0.015 C 
ATOM     77  CD2 LEU A   3       5.264  -0.435  27.611  0.00  0.00    +0.007 C 
ATOM     78  CD1 LEU A   3       6.960   1.009  28.747  0.00  0.00    +0.007 C 
ENDBRANCH  75  76
ENDBRANCH  50  75
ENDBRANCH  46  50
ENDBRANCH  45  48
BRANCH  45  79
ATOM     79  CB  GLN A   4       9.945   0.412  21.591  0.00  0.00    +0.041 C 
BRANCH  79  80
ATOM     80  CG  GLN A   4      10.318  -0.324  22.873  0.00  0.00    +0.098 C 
BRANCH  80  81
ATOM     81  CD  GLN A   4       9.842  -1.761  22.781  0.00  0.00    +0.211 C 
ATOM     82  OE1 GLN A   4       9.202  -2.203  21.827  0.00  0.00    -0.276 OA
ATOM     83  NE2 GLN A   4      10.234  -2.556  23.816  0.00  0.00    -0.329 N 
ATOM     84 HE21 GLN A   4      10.704  -2.194  24.642  0.00  0.00    +0.145 HD
ATOM     85 HE22 GLN A   4       9.950  -3.526  23.838  0.00  0.00    +0.145 HD
ENDBRANCH  80  81
ENDBRANCH  79  80
ENDBRANCH  45  79
ENDBRANCH   1  45
TORSDOF 37
ENDMDL
MODEL 3
REMARK VINA RESULT:      -5.5      2.216      5.468
REMARK  Name = VKLQNNEL-mmff94.pdb
REMARK  43 active torsions:
REMARK  status: ('A' for Active; 'I' for Inactive)
REMARK    1  A    between atoms: _1  and  _2
REMARK    2  A    between atoms: _2  and  _3
REMARK    3  A    between atoms: _2  and  _5
REMARK    4  A    between atoms: _5  and  _6
REMARK    5  A    between atoms: _5  and  _7
REMARK    6  A    between atoms: _17  and  _18
REMARK    7  A    between atoms: _18  and  _19
REMARK    8  A    between atoms: _18  and  _21
REMARK    9  A    between atoms: _21  and  _22
REMARK   10  A    between atoms: _22  and  _23
REMARK   11  A    between atoms: _23  and  _24
REMARK   12  A    between atoms: _24  and  _25
REMARK   13  A    between atoms: _39  and  _40
REMARK   14  A    between atoms: _40  and  _41
REMARK   15  A    between atoms: _40  and  _43
REMARK   16  A    between atoms: _43  and  _44
REMARK   17  A    between atoms: _44  and  _45
REMARK   18  A    between atoms: _44  and  _46
REMARK   19  A    between atoms: _58  and  _59
REMARK   20  A    between atoms: _59  and  _60
REMARK   21  A    between atoms: _59  and  _62
REMARK   22  A    between atoms: _62  and  _63
REMARK   23  A    between atoms: _63  and  _64
REMARK   24  A    between atoms: _75  and  _76
REMARK   25  A    between atoms: _76  and  _77
REMARK   26  A    between atoms: _76  and  _79
REMARK   27  A    between atoms: _79  and  _80
REMARK   28  A    between atoms: _89  and  _90
REMARK   29  A    between atoms: _90  and  _91
REMARK   30  A    between atoms: _90  and  _93
REMARK   31  A    between atoms: _93  and  _94
REMARK   32  A    between atoms: _103  and  _104
REMARK   33  A    between atoms: _104  and  _105
REMARK   34  A    between atoms: _104  and  _107
REMARK   35  A    between atoms: _107  and  _108
REMARK   36  A    between atoms: _108  and  _109
REMARK   37  A    between atoms: _109  and  _110
REMARK   38  A    between atoms: _118  and  _119
REMARK   39  A    between atoms: _119  and  _120
REMARK   40  A    between atoms: _119  and  _122
REMARK   41  A    between atoms: _122  and  _123
REMARK   42  A    between atoms: _123  and  _124
REMARK   43  A    between atoms: _123  and  _125
REMARK                            x       y       z     vdW  Elec       q    Type
REMARK                         _______ _______ _______ _____ _____    ______ ____
ROOT
ATOM      1  C   GLN A   4       7.817  -0.772  22.778  0.00  0.00    +0.234 C 
ATOM      2  N   ASN A   5       7.546  -1.185  21.499  0.00  0.00    -0.302 N 
ATOM      3  H   ASN A   5       8.289  -1.293  20.814  0.00  0.00    +0.150 HD
ATOM      4  O   GLN A   4       6.934  -0.569  23.613  0.00  0.00    -0.274 OA
ENDROOT
BRANCH   2   5
ATOM      5  CA  ASN A   5       6.175  -1.302  21.002  0.00  0.00    +0.168 C 
BRANCH   5   6
ATOM      6  C   ASN A   5       5.727  -2.743  21.282  0.00  0.00    +0.234 C 
ATOM      7  O   ASN A   5       5.572  -3.568  20.381  0.00  0.00    -0.274 OA
ATOM      8  N   ASN A   6       5.458  -3.027  22.599  0.00  0.00    -0.302 N 
ATOM      9  H   ASN A   6       5.597  -2.330  23.327  0.00  0.00    +0.150 HD
BRANCH   8  10
ATOM     10  CA  ASN A   6       5.074  -4.364  23.049  0.00  0.00    +0.168 C 
BRANCH  10  11
ATOM     11  C   ASN A   6       4.142  -4.176  24.258  0.00  0.00    +0.234 C 
ATOM     12  N   GLU A   7       4.749  -3.721  25.400  0.00  0.00    -0.302 N 
ATOM     13  H   GLU A   7       5.761  -3.651  25.462  0.00  0.00    +0.150 HD
ATOM     14  O   ASN A   6       2.930  -4.375  24.178  0.00  0.00    -0.274 OA
BRANCH  12  15
ATOM     15  CA  GLU A   7       4.014  -3.434  26.636  0.00  0.00    +0.159 C 
BRANCH  15  16
ATOM     16  C   GLU A   7       4.665  -2.165  27.216  0.00  0.00    +0.234 C 
ATOM     17  N   LEU A   8       4.958  -1.187  26.301  0.00  0.00    -0.304 N 
ATOM     18  H   LEU A   8       4.675  -1.294  25.329  0.00  0.00    +0.149 HD
ATOM     19  O   GLU A   7       4.875  -2.046  28.421  0.00  0.00    -0.274 OA
BRANCH  17  20
ATOM     20  CA  LEU A   8       5.467   0.131  26.672  0.00  0.00    +0.136 C 
BRANCH  20  21
ATOM     21  C   LEU A   8       6.962  -0.034  26.928  0.00  0.00    +0.245 C 
ATOM     22  O   LEU A   8       7.820   0.662  26.385  0.00  0.00    -0.299 OA
ENDBRANCH  20  21
BRANCH  20  23
ATOM     23  CB  LEU A   8       4.799   0.678  27.939  0.00  0.00    +0.032 C 
BRANCH  23  24
ATOM     24  CG  LEU A   8       3.470   1.423  27.706  0.00  0.00    -0.015 C 
ATOM     25  CD2 LEU A   8       2.254   0.533  27.970  0.00  0.00    +0.007 C 
ATOM     26  CD1 LEU A   8       3.412   1.947  26.267  0.00  0.00    +0.007 C 
ENDBRANCH  23  24
ENDBRANCH  20  23
ENDBRANCH  17  20
ENDBRANCH  15  16
BRANCH  15  27
ATOM     27  CB  GLU A   7       4.113  -4.607  27.622  0.00  0.00    +0.038 C 
BRANCH  27  28
ATOM     28  CG  GLU A   7       5.177  -5.638  27.247  0.00  0.00    +0.059 C 
BRANCH  28  29
ATOM     29  CD  GLU A   7       6.335  -5.592  28.209  0.00  0.00    +0.023 C 
ATOM     30  OE1 GLU A   7       6.211  -5.438  29.414  0.00  0.00    -0.851 OA
BRANCH  29  31
ATOM     31  OE2 GLU A   7       7.537  -5.760  27.617  0.00  0.00    -0.526 OA
ATOM     32  HE2 GLU A   7       7.743  -6.680  27.369  0.00  0.00    +0.290 HD
ENDBRANCH  29  31
ENDBRANCH  28  29
ENDBRANCH  27  28
ENDBRANCH  15  27
ENDBRANCH  12  15
ENDBRANCH  10  11
BRANCH  10  33
ATOM     33  CB  ASN A   6       6.276  -5.201  23.487  0.00  0.00    +0.127 C 
BRANCH  33  34
ATOM     34  CG  ASN A   6       6.952  -5.918  22.342  0.00  0.00    +0.213 C 
ATOM     35  ND2 ASN A   6       6.120  -6.510  21.438  0.00  0.00    -0.329 N 
ATOM     36 HD21 ASN A   6       5.162  -6.211  21.317  0.00  0.00    +0.145 HD
ATOM     37 HD22 ASN A   6       6.568  -6.895  20.616  0.00  0.00    +0.145 HD
ATOM     38  OD1 ASN A   6       8.171  -6.003  22.224  0.00  0.00    -0.276 OA
ENDBRANCH  33  34
ENDBRANCH  10  33
ENDBRANCH   8  10
ENDBRANCH   5   6
BRANCH   5  39
ATOM     39  CB  ASN A   5       6.061  -1.048  19.501  0.00  0.00    +0.127 C 
BRANCH  39  40
ATOM     40  CG  ASN A   5       5.868   0.412  19.184  0.00  0.00    +0.213 C 
ATOM     41  OD1 ASN A   5       6.065   1.302  20.006  0.00  0.00    -0.276 OA
ATOM     42  ND2 ASN A   5       5.449   0.697  17.921  0.00  0.00    -0.329 N 
ATOM     43 HD21 ASN A   5       5.244   1.667  17.715  0.00  0.00    +0.145 HD
ATOM     44 HD22 ASN A   5       5.103   0.004  17.274  0.00  0.00    +0.145 HD
ENDBRANCH  39  40
ENDBRANCH   5  39
ENDBRANCH   2   5
BRANCH   1  45
ATOM     45  CA  GLN A   4       9.307  -0.604  23.127  0.00  0.00    +0.159 C 
BRANCH  45  48
ATOM     46  C   LEU A   3       9.413   1.789  22.447  0.00  0.00    +0.234 C 
ATOM     47  O   LEU A   3       9.208   1.527  21.259  0.00  0.00    -0.274 OA
ATOM     48  N   GLN A   4       9.498   0.816  23.413  0.00  0.00    -0.302 N 
ATOM     49  H   GLN A   4       9.691   1.066  24.382  0.00  0.00    +0.150 HD
BRANCH  46  50
ATOM     50  CA  LEU A   3       9.627   3.233  22.952  0.00  0.00    +0.159 C 
BRANCH  50  52
ATOM     51  C   LYS A   2       7.347   4.213  23.147  0.00  0.00    +0.234 C 
ATOM     52  N   LEU A   3       8.429   3.582  23.711  0.00  0.00    -0.302 N 
ATOM     53  H   LEU A   3       8.335   3.135  24.616  0.00  0.00    +0.150 HD
ATOM     54  O   LYS A   2       7.347   4.673  22.007  0.00  0.00    -0.274 OA
BRANCH  51  55
ATOM     55  CA  LYS A   2       6.096   4.254  24.042  0.00  0.00    +0.159 C 
BRANCH  55  58
ATOM     56  C   VAL A   1       3.805   3.953  23.153  0.00  0.00    +0.231 C 
ATOM     57  O   VAL A   1       3.416   5.014  23.640  0.00  0.00    -0.274 OA
ATOM     58  N   LYS A   2       5.074   3.471  23.362  0.00  0.00    -0.303 N 
ATOM     59  H   LYS A   2       5.368   2.595  22.937  0.00  0.00    +0.149 HD
BRANCH  56  60
ATOM     60  CA  VAL A   1       2.912   3.057  22.260  0.00  0.00    +0.140 C 
BRANCH  60  61
ATOM     61  N   VAL A   1       1.610   2.886  22.939  0.00  0.00    -0.320 NA
ATOM     62  H1  VAL A   1       1.530   3.627  23.640  0.00  0.00    +0.119 HD
ATOM     63  H2  VAL A   1       1.633   2.024  23.483  0.00  0.00    +0.119 HD
ENDBRANCH  60  61
BRANCH  60  64
ATOM     64  CB  VAL A   1       2.729   3.673  20.850  0.00  0.00    +0.009 C 
ATOM     65  CG2 VAL A   1       2.626   2.601  19.757  0.00  0.00    +0.009 C 
ATOM     66  CG1 VAL A   1       1.480   4.563  20.781  0.00  0.00    +0.009 C 
ENDBRANCH  60  64
ENDBRANCH  56  60
ENDBRANCH  55  58
BRANCH  55  67
ATOM     67  CB  LYS A   2       6.405   3.677  25.436  0.00  0.00    +0.032 C 
BRANCH  67  68
ATOM     68  CG  LYS A   2       5.964   4.609  26.569  0.00  0.00    +0.007 C 
BRANCH  68  69
ATOM     69  CD  LYS A   2       7.124   5.096  27.438  0.00  0.00    +0.051 C 
BRANCH  69  70
ATOM     70  CE  LYS A   2       6.792   4.858  28.909  0.00  0.00    +0.127 C 
BRANCH  70  71
ATOM     71  NZ  LYS A   2       5.338   5.005  29.131  0.00  0.00    +0.219 N 
ATOM     72  HZ1 LYS A   2       5.020   5.976  29.018  0.00  0.00    +0.199 HD
ATOM     73  HZ2 LYS A   2       5.112   4.701  30.091  0.00  0.00    +0.199 HD
ATOM     74  HZ3 LYS A   2       4.795   4.406  28.500  0.00  0.00    +0.199 HD
ENDBRANCH  70  71
ENDBRANCH  69  70
ENDBRANCH  68  69
ENDBRANCH  67  68
ENDBRANCH  55  67
ENDBRANCH  51  55
ENDBRANCH  50  52
BRANCH  50  75
ATOM     75  CB  LEU A   3      10.885   3.333  23.822  0.00  0.00    +0.034 C 
BRANCH  75  76
ATOM     76  CG  LEU A   3      11.555   4.722  23.809  0.00  0.00    -0.015 C 
ATOM     77  CD2 LEU A   3      12.440   4.861  22.568  0.00  0.00    +0.007 C 
ATOM     78  CD1 LEU A   3      10.532   5.859  23.838  0.00  0.00    +0.007 C 
ENDBRANCH  75  76
ENDBRANCH  50  75
ENDBRANCH  46  50
ENDBRANCH  45  48
BRANCH  45  79
ATOM     79  CB  GLN A   4       9.669  -1.452  24.353  0.00  0.00    +0.041 C 
BRANCH  79  80
ATOM     80  CG  GLN A   4       9.749  -2.945  24.052  0.00  0.00    +0.098 C 
BRANCH  80  81
ATOM     81  CD  GLN A   4       9.039  -3.714  25.149  0.00  0.00    +0.211 C 
ATOM     82  OE1 GLN A   4       8.237  -3.200  25.928  0.00  0.00    -0.276 OA
ATOM     83  NE2 GLN A   4       9.309  -5.050  25.171  0.00  0.00    -0.329 N 
ATOM     84 HE21 GLN A   4      10.018  -5.479  24.581  0.00  0.00    +0.145 HD
ATOM     85 HE22 GLN A   4       8.886  -5.635  25.879  0.00  0.00    +0.145 HD
ENDBRANCH  80  81
ENDBRANCH  79  80
ENDBRANCH  45  79
ENDBRANCH   1  45
TORSDOF 37
ENDMDL
MODEL 4
REMARK VINA RESULT:      -5.5      2.083      8.779
REMARK  Name = VKLQNNEL-mmff94.pdb
REMARK  43 active torsions:
REMARK  status: ('A' for Active; 'I' for Inactive)
REMARK    1  A    between atoms: _1  and  _2
REMARK    2  A    between atoms: _2  and  _3
REMARK    3  A    between atoms: _2  and  _5
REMARK    4  A    between atoms: _5  and  _6
REMARK    5  A    between atoms: _5  and  _7
REMARK    6  A    between atoms: _17  and  _18
REMARK    7  A    between atoms: _18  and  _19
REMARK    8  A    between atoms: _18  and  _21
REMARK    9  A    between atoms: _21  and  _22
REMARK   10  A    between atoms: _22  and  _23
REMARK   11  A    between atoms: _23  and  _24
REMARK   12  A    between atoms: _24  and  _25
REMARK   13  A    between atoms: _39  and  _40
REMARK   14  A    between atoms: _40  and  _41
REMARK   15  A    between atoms: _40  and  _43
REMARK   16  A    between atoms: _43  and  _44
REMARK   17  A    between atoms: _44  and  _45
REMARK   18  A    between atoms: _44  and  _46
REMARK   19  A    between atoms: _58  and  _59
REMARK   20  A    between atoms: _59  and  _60
REMARK   21  A    between atoms: _59  and  _62
REMARK   22  A    between atoms: _62  and  _63
REMARK   23  A    between atoms: _63  and  _64
REMARK   24  A    between atoms: _75  and  _76
REMARK   25  A    between atoms: _76  and  _77
REMARK   26  A    between atoms: _76  and  _79
REMARK   27  A    between atoms: _79  and  _80
REMARK   28  A    between atoms: _89  and  _90
REMARK   29  A    between atoms: _90  and  _91
REMARK   30  A    between atoms: _90  and  _93
REMARK   31  A    between atoms: _93  and  _94
REMARK   32  A    between atoms: _103  and  _104
REMARK   33  A    between atoms: _104  and  _105
REMARK   34  A    between atoms: _104  and  _107
REMARK   35  A    between atoms: _107  and  _108
REMARK   36  A    between atoms: _108  and  _109
REMARK   37  A    between atoms: _109  and  _110
REMARK   38  A    between atoms: _118  and  _119
REMARK   39  A    between atoms: _119  and  _120
REMARK   40  A    between atoms: _119  and  _122
REMARK   41  A    between atoms: _122  and  _123
REMARK   42  A    between atoms: _123  and  _124
REMARK   43  A    between atoms: _123  and  _125
REMARK                            x       y       z     vdW  Elec       q    Type
REMARK                         _______ _______ _______ _____ _____    ______ ____
ROOT
ATOM      1  C   GLN A   4       6.949  -1.453  23.340  0.00  0.00    +0.234 C 
ATOM      2  N   ASN A   5       8.106  -1.574  24.067  0.00  0.00    -0.302 N 
ATOM      3  H   ASN A   5       8.734  -2.360  23.925  0.00  0.00    +0.150 HD
ATOM      4  O   GLN A   4       6.136  -0.547  23.531  0.00  0.00    -0.274 OA
ENDROOT
BRANCH   2   5
ATOM      5  CA  ASN A   5       8.396  -0.700  25.203  0.00  0.00    +0.168 C 
BRANCH   5   6
ATOM      6  C   ASN A   5       9.571   0.194  24.783  0.00  0.00    +0.234 C 
ATOM      7  O   ASN A   5      10.744  -0.130  24.977  0.00  0.00    -0.274 OA
ATOM      8  N   ASN A   6       9.219   1.400  24.227  0.00  0.00    -0.302 N 
ATOM      9  H   ASN A   6       8.244   1.644  24.072  0.00  0.00    +0.150 HD
BRANCH   8  10
ATOM     10  CA  ASN A   6      10.211   2.347  23.720  0.00  0.00    +0.168 C 
BRANCH  10  11
ATOM     11  C   ASN A   6       9.653   3.757  23.980  0.00  0.00    +0.234 C 
ATOM     12  N   GLU A   7       8.404   3.797  24.544  0.00  0.00    -0.302 N 
ATOM     13  H   GLU A   7       7.850   2.951  24.647  0.00  0.00    +0.150 HD
ATOM     14  O   ASN A   6      10.313   4.768  23.741  0.00  0.00    -0.274 OA
BRANCH  12  15
ATOM     15  CA  GLU A   7       7.732   5.048  24.910  0.00  0.00    +0.159 C 
BRANCH  15  16
ATOM     16  C   GLU A   7       7.357   4.893  26.396  0.00  0.00    +0.234 C 
ATOM     17  N   LEU A   8       6.392   3.958  26.661  0.00  0.00    -0.304 N 
ATOM     18  H   LEU A   8       6.031   3.368  25.914  0.00  0.00    +0.149 HD
ATOM     19  O   GLU A   7       7.916   5.553  27.270  0.00  0.00    -0.274 OA
BRANCH  17  20
ATOM     20  CA  LEU A   8       5.988   3.583  28.014  0.00  0.00    +0.136 C 
BRANCH  20  21
ATOM     21  C   LEU A   8       6.956   2.496  28.474  0.00  0.00    +0.245 C 
ATOM     22  O   LEU A   8       7.123   1.440  27.864  0.00  0.00    -0.299 OA
ENDBRANCH  20  21
BRANCH  20  23
ATOM     23  CB  LEU A   8       4.558   3.034  28.065  0.00  0.00    +0.032 C 
BRANCH  23  24
ATOM     24  CG  LEU A   8       3.477   3.973  27.492  0.00  0.00    -0.015 C 
ATOM     25  CD2 LEU A   8       2.483   4.431  28.561  0.00  0.00    +0.007 C 
ATOM     26  CD1 LEU A   8       2.720   3.266  26.364  0.00  0.00    +0.007 C 
ENDBRANCH  23  24
ENDBRANCH  20  23
ENDBRANCH  17  20
ENDBRANCH  15  16
BRANCH  15  27
ATOM     27  CB  GLU A   7       6.485   5.278  24.046  0.00  0.00    +0.038 C 
BRANCH  27  28
ATOM     28  CG  GLU A   7       6.545   4.591  22.683  0.00  0.00    +0.059 C 
BRANCH  28  29
ATOM     29  CD  GLU A   7       5.699   3.344  22.670  0.00  0.00    +0.023 C 
ATOM     30  OE1 GLU A   7       4.566   3.297  22.218  0.00  0.00    -0.851 OA
BRANCH  29  31
ATOM     31  OE2 GLU A   7       6.321   2.264  23.188  0.00  0.00    -0.526 OA
ATOM     32  HE2 GLU A   7       5.771   1.723  23.783  0.00  0.00    +0.290 HD
ENDBRANCH  29  31
ENDBRANCH  28  29
ENDBRANCH  27  28
ENDBRANCH  15  27
ENDBRANCH  12  15
ENDBRANCH  10  11
BRANCH  10  33
ATOM     33  CB  ASN A   6      10.456   2.190  22.219  0.00  0.00    +0.127 C 
BRANCH  33  34
ATOM     34  CG  ASN A   6       9.552   1.168  21.572  0.00  0.00    +0.213 C 
ATOM     35  ND2 ASN A   6       8.415   1.657  21.002  0.00  0.00    -0.329 N 
ATOM     36 HD21 ASN A   6       8.336   2.621  20.707  0.00  0.00    +0.145 HD
ATOM     37 HD22 ASN A   6       7.865   0.990  20.475  0.00  0.00    +0.145 HD
ATOM     38  OD1 ASN A   6       9.789  -0.037  21.570  0.00  0.00    -0.276 OA
ENDBRANCH  33  34
ENDBRANCH  10  33
ENDBRANCH   8  10
ENDBRANCH   5   6
BRANCH   5  39
ATOM     39  CB  ASN A   5       8.804  -1.468  26.458  0.00  0.00    +0.127 C 
BRANCH  39  40
ATOM     40  CG  ASN A   5       8.123  -2.808  26.552  0.00  0.00    +0.213 C 
ATOM     41  OD1 ASN A   5       6.902  -2.934  26.568  0.00  0.00    -0.276 OA
ATOM     42  ND2 ASN A   5       8.945  -3.890  26.626  0.00  0.00    -0.329 N 
ATOM     43 HD21 ASN A   5       8.505  -4.791  26.764  0.00  0.00    +0.145 HD
ATOM     44 HD22 ASN A   5       9.939  -3.830  26.797  0.00  0.00    +0.145 HD
ENDBRANCH  39  40
ENDBRANCH   5  39
ENDBRANCH   2   5
BRANCH   1  45
ATOM     45  CA  GLN A   4       6.738  -2.504  22.235  0.00  0.00    +0.159 C 
BRANCH  45  48
ATOM     46  C   LEU A   3       6.542  -4.591  23.579  0.00  0.00    +0.234 C 
ATOM     47  O   LEU A   3       7.761  -4.679  23.740  0.00  0.00    -0.274 OA
ATOM     48  N   GLN A   4       5.964  -3.582  22.847  0.00  0.00    -0.302 N 
ATOM     49  H   GLN A   4       4.955  -3.552  22.715  0.00  0.00    +0.150 HD
BRANCH  46  50
ATOM     50  CA  LEU A   3       5.553  -5.626  24.159  0.00  0.00    +0.159 C 
BRANCH  50  52
ATOM     51  C   LYS A   2       5.205  -5.686  26.623  0.00  0.00    +0.234 C 
ATOM     52  N   LEU A   3       5.055  -5.060  25.410  0.00  0.00    -0.302 N 
ATOM     53  H   LEU A   3       4.798  -4.079  25.378  0.00  0.00    +0.150 HD
ATOM     54  O   LYS A   2       5.627  -6.834  26.747  0.00  0.00    -0.274 OA
BRANCH  51  55
ATOM     55  CA  LYS A   2       4.850  -4.813  27.839  0.00  0.00    +0.159 C 
BRANCH  55  58
ATOM     56  C   VAL A   1       3.783  -2.581  27.736  0.00  0.00    +0.231 C 
ATOM     57  O   VAL A   1       4.597  -2.094  28.519  0.00  0.00    -0.274 OA
ATOM     58  N   LYS A   2       3.787  -3.915  27.408  0.00  0.00    -0.303 N 
ATOM     59  H   LYS A   2       3.106  -4.284  26.749  0.00  0.00    +0.149 HD
BRANCH  56  60
ATOM     60  CA  VAL A   1       2.675  -1.749  27.043  0.00  0.00    +0.140 C 
BRANCH  60  61
ATOM     61  N   VAL A   1       2.015  -2.610  26.040  0.00  0.00    -0.320 NA
ATOM     62  H1  VAL A   1       2.734  -2.925  25.384  0.00  0.00    +0.119 HD
ATOM     63  H2  VAL A   1       1.389  -2.036  25.473  0.00  0.00    +0.119 HD
ENDBRANCH  60  61
BRANCH  60  64
ATOM     64  CB  VAL A   1       1.652  -1.207  28.073  0.00  0.00    +0.009 C 
ATOM     65  CG2 VAL A   1       1.461  -2.162  29.258  0.00  0.00    +0.009 C 
ATOM     66  CG1 VAL A   1       2.070   0.167  28.614  0.00  0.00    +0.009 C 
ENDBRANCH  60  64
ENDBRANCH  56  60
ENDBRANCH  55  58
BRANCH  55  67
ATOM     67  CB  LYS A   2       4.394  -5.687  29.022  0.00  0.00    +0.032 C 
BRANCH  67  68
ATOM     68  CG  LYS A   2       2.875  -5.663  29.219  0.00  0.00    +0.007 C 
BRANCH  68  69
ATOM     69  CD  LYS A   2       2.212  -7.020  28.977  0.00  0.00    +0.051 C 
BRANCH  69  70
ATOM     70  CE  LYS A   2       1.858  -7.155  27.498  0.00  0.00    +0.127 C 
BRANCH  70  71
ATOM     71  NZ  LYS A   2       1.474  -8.551  27.195  0.00  0.00    +0.219 N 
ATOM     72  HZ1 LYS A   2       0.821  -8.615  26.404  0.00  0.00    +0.199 HD
ATOM     73  HZ2 LYS A   2       1.017  -8.961  28.025  0.00  0.00    +0.199 HD
ATOM     74  HZ3 LYS A   2       2.293  -9.135  26.994  0.00  0.00    +0.199 HD
ENDBRANCH  70  71
ENDBRANCH  69  70
ENDBRANCH  68  69
ENDBRANCH  67  68
ENDBRANCH  55  67
ENDBRANCH  51  55
ENDBRANCH  50  52
BRANCH  50  75
ATOM     75  CB  LEU A   3       4.406  -5.903  23.180  0.00  0.00    +0.034 C 
BRANCH  75  76
ATOM     76  CG  LEU A   3       3.042  -6.152  23.856  0.00  0.00    -0.015 C 
ATOM     77  CD2 LEU A   3       1.935  -5.443  23.073  0.00  0.00    +0.007 C 
ATOM     78  CD1 LEU A   3       2.716  -7.643  23.968  0.00  0.00    +0.007 C 
ENDBRANCH  75  76
ENDBRANCH  50  75
ENDBRANCH  46  50
ENDBRANCH  45  48
BRANCH  45  79
ATOM     79  CB  GLN A   4       5.970  -1.894  21.055  0.00  0.00    +0.041 C 
BRANCH  79  80
ATOM     80  CG  GLN A   4       6.865  -1.137  20.080  0.00  0.00    +0.098 C 
BRANCH  80  81
ATOM     81  CD  GLN A   4       6.012  -0.550  18.972  0.00  0.00    +0.211 C 
ATOM     82  OE1 GLN A   4       6.166  -0.820  17.782  0.00  0.00    -0.276 OA
ATOM     83  NE2 GLN A   4       5.006   0.264  19.402  0.00  0.00    -0.329 N 
ATOM     84 HE21 GLN A   4       4.906   0.551  20.372  0.00  0.00    +0.145 HD
ATOM     85 HE22 GLN A   4       4.398   0.707  18.727  0.00  0.00    +0.145 HD
ENDBRANCH  80  81
ENDBRANCH  79  80
ENDBRANCH  45  79
ENDBRANCH   1  45
TORSDOF 37
ENDMDL
MODEL 5
REMARK VINA RESULT:      -5.4      2.181      8.982
REMARK  Name = VKLQNNEL-mmff94.pdb
REMARK  43 active torsions:
REMARK  status: ('A' for Active; 'I' for Inactive)
REMARK    1  A    between atoms: _1  and  _2
REMARK    2  A    between atoms: _2  and  _3
REMARK    3  A    between atoms: _2  and  _5
REMARK    4  A    between atoms: _5  and  _6
REMARK    5  A    between atoms: _5  and  _7
REMARK    6  A    between atoms: _17  and  _18
REMARK    7  A    between atoms: _18  and  _19
REMARK    8  A    between atoms: _18  and  _21
REMARK    9  A    between atoms: _21  and  _22
REMARK   10  A    between atoms: _22  and  _23
REMARK   11  A    between atoms: _23  and  _24
REMARK   12  A    between atoms: _24  and  _25
REMARK   13  A    between atoms: _39  and  _40
REMARK   14  A    between atoms: _40  and  _41
REMARK   15  A    between atoms: _40  and  _43
REMARK   16  A    between atoms: _43  and  _44
REMARK   17  A    between atoms: _44  and  _45
REMARK   18  A    between atoms: _44  and  _46
REMARK   19  A    between atoms: _58  and  _59
REMARK   20  A    between atoms: _59  and  _60
REMARK   21  A    between atoms: _59  and  _62
REMARK   22  A    between atoms: _62  and  _63
REMARK   23  A    between atoms: _63  and  _64
REMARK   24  A    between atoms: _75  and  _76
REMARK   25  A    between atoms: _76  and  _77
REMARK   26  A    between atoms: _76  and  _79
REMARK   27  A    between atoms: _79  and  _80
REMARK   28  A    between atoms: _89  and  _90
REMARK   29  A    between atoms: _90  and  _91
REMARK   30  A    between atoms: _90  and  _93
REMARK   31  A    between atoms: _93  and  _94
REMARK   32  A    between atoms: _103  and  _104
REMARK   33  A    between atoms: _104  and  _105
REMARK   34  A    between atoms: _104  and  _107
REMARK   35  A    between atoms: _107  and  _108
REMARK   36  A    between atoms: _108  and  _109
REMARK   37  A    between atoms: _109  and  _110
REMARK   38  A    between atoms: _118  and  _119
REMARK   39  A    between atoms: _119  and  _120
REMARK   40  A    between atoms: _119  and  _122
REMARK   41  A    between atoms: _122  and  _123
REMARK   42  A    between atoms: _123  and  _124
REMARK   43  A    between atoms: _123  and  _125
REMARK                            x       y       z     vdW  Elec       q    Type
REMARK                         _______ _______ _______ _____ _____    ______ ____
ROOT
ATOM      1  C   GLN A   4       7.661  -0.972  21.418  0.00  0.00    +0.234 C 
ATOM      2  N   ASN A   5       6.550  -0.172  21.489  0.00  0.00    -0.302 N 
ATOM      3  H   ASN A   5       5.651  -0.547  21.779  0.00  0.00    +0.150 HD
ATOM      4  O   GLN A   4       8.749  -0.564  21.011  0.00  0.00    -0.274 OA
ENDROOT
BRANCH   2   5
ATOM      5  CA  ASN A   5       6.553   1.197  20.974  0.00  0.00    +0.168 C 
BRANCH   5   6
ATOM      6  C   ASN A   5       5.975   2.087  22.083  0.00  0.00    +0.234 C 
ATOM      7  O   ASN A   5       6.096   1.809  23.277  0.00  0.00    -0.274 OA
ATOM      8  N   ASN A   6       5.268   3.181  21.646  0.00  0.00    -0.302 N 
ATOM      9  H   ASN A   6       5.186   3.393  20.655  0.00  0.00    +0.150 HD
BRANCH   8  10
ATOM     10  CA  ASN A   6       4.699   4.164  22.567  0.00  0.00    +0.168 C 
BRANCH  10  11
ATOM     11  C   ASN A   6       5.871   5.010  23.095  0.00  0.00    +0.234 C 
ATOM     12  N   GLU A   7       6.265   4.727  24.379  0.00  0.00    -0.302 N 
ATOM     13  H   GLU A   7       5.721   4.101  24.966  0.00  0.00    +0.150 HD
ATOM     14  O   ASN A   6       6.439   5.841  22.389  0.00  0.00    -0.274 OA
BRANCH  12  15
ATOM     15  CA  GLU A   7       7.395   5.394  25.032  0.00  0.00    +0.159 C 
BRANCH  15  16
ATOM     16  C   GLU A   7       8.638   4.572  24.641  0.00  0.00    +0.234 C 
ATOM     17  N   LEU A   8       8.451   3.216  24.592  0.00  0.00    -0.304 N 
ATOM     18  H   LEU A   8       7.523   2.822  24.729  0.00  0.00    +0.149 HD
ATOM     19  O   GLU A   7       9.706   5.117  24.371  0.00  0.00    -0.274 OA
BRANCH  17  20
ATOM     20  CA  LEU A   8       9.474   2.282  24.128  0.00  0.00    +0.136 C 
BRANCH  20  21
ATOM     21  C   LEU A   8       9.498   2.382  22.605  0.00  0.00    +0.245 C 
ATOM     22  O   LEU A   8      10.490   2.114  21.927  0.00  0.00    -0.299 OA
ENDBRANCH  20  21
BRANCH  20  23
ATOM     23  CB  LEU A   8       9.167   0.835  24.530  0.00  0.00    +0.032 C 
BRANCH  23  24
ATOM     24  CG  LEU A   8      10.405  -0.044  24.799  0.00  0.00    -0.015 C 
ATOM     25  CD2 LEU A   8      11.696   0.775  24.850  0.00  0.00    +0.007 C 
ATOM     26  CD1 LEU A   8      10.527  -1.116  23.711  0.00  0.00    +0.007 C 
ENDBRANCH  23  24
ENDBRANCH  20  23
ENDBRANCH  17  20
ENDBRANCH  15  16
BRANCH  15  27
ATOM     27  CB  GLU A   7       7.211   5.427  26.556  0.00  0.00    +0.038 C 
BRANCH  27  28
ATOM     28  CG  GLU A   7       6.003   4.631  27.048  0.00  0.00    +0.059 C 
BRANCH  28  29
ATOM     29  CD  GLU A   7       6.387   3.209  27.364  0.00  0.00    +0.023 C 
ATOM     30  OE1 GLU A   7       6.906   2.864  28.414  0.00  0.00    -0.851 OA
BRANCH  29  31
ATOM     31  OE2 GLU A   7       6.081   2.335  26.382  0.00  0.00    -0.526 OA
ATOM     32  HE2 GLU A   7       6.349   1.414  26.557  0.00  0.00    +0.290 HD
ENDBRANCH  29  31
ENDBRANCH  28  29
ENDBRANCH  27  28
ENDBRANCH  15  27
ENDBRANCH  12  15
ENDBRANCH  10  11
BRANCH  10  33
ATOM     33  CB  ASN A   6       3.995   3.512  23.757  0.00  0.00    +0.127 C 
BRANCH  33  34
ATOM     34  CG  ASN A   6       2.510   3.333  23.546  0.00  0.00    +0.213 C 
ATOM     35  ND2 ASN A   6       1.980   3.989  22.475  0.00  0.00    -0.329 N 
ATOM     36 HD21 ASN A   6       2.545   4.270  21.685  0.00  0.00    +0.145 HD
ATOM     37 HD22 ASN A   6       1.010   3.783  22.270  0.00  0.00    +0.145 HD
ATOM     38  OD1 ASN A   6       1.797   2.668  24.292  0.00  0.00    -0.276 OA
ENDBRANCH  33  34
ENDBRANCH  10  33
ENDBRANCH   8  10
ENDBRANCH   5   6
BRANCH   5  39
ATOM     39  CB  ASN A   5       5.691   1.367  19.726  0.00  0.00    +0.127 C 
BRANCH  39  40
ATOM     40  CG  ASN A   5       6.214   0.570  18.560  0.00  0.00    +0.213 C 
ATOM     41  OD1 ASN A   5       7.407   0.506  18.280  0.00  0.00    -0.276 OA
ATOM     42  ND2 ASN A   5       5.278  -0.082  17.816  0.00  0.00    -0.329 N 
ATOM     43 HD21 ASN A   5       5.606  -0.561  16.987  0.00  0.00    +0.145 HD
ATOM     44 HD22 ASN A   5       4.285   0.083  17.893  0.00  0.00    +0.145 HD
ENDBRANCH  39  40
ENDBRANCH   5  39
ENDBRANCH   2   5
BRANCH   1  45
ATOM     45  CA  GLN A   4       7.478  -2.419  21.913  0.00  0.00    +0.159 C 
BRANCH  45  48
ATOM     46  C   LEU A   3       6.789  -2.030  24.274  0.00  0.00    +0.234 C 
ATOM     47  O   LEU A   3       5.656  -1.667  23.951  0.00  0.00    -0.274 OA
ATOM     48  N   GLN A   4       7.740  -2.390  23.350  0.00  0.00    -0.302 N 
ATOM     49  H   GLN A   4       8.674  -2.664  23.650  0.00  0.00    +0.150 HD
BRANCH  46  50
ATOM     50  CA  LEU A   3       7.255  -2.081  25.746  0.00  0.00    +0.159 C 
BRANCH  50  52
ATOM     51  C   LYS A   2       5.407  -1.464  27.296  0.00  0.00    +0.234 C 
ATOM     52  N   LEU A   3       6.070  -2.399  26.538  0.00  0.00    -0.302 N 
ATOM     53  H   LEU A   3       5.622  -3.284  26.326  0.00  0.00    +0.150 HD
ATOM     54  O   LYS A   2       5.830  -0.328  27.496  0.00  0.00    -0.274 OA
BRANCH  51  55
ATOM     55  CA  LYS A   2       4.046  -1.934  27.839  0.00  0.00    +0.159 C 
BRANCH  55  58
ATOM     56  C   VAL A   1       2.822  -3.995  27.220  0.00  0.00    +0.231 C 
ATOM     57  O   VAL A   1       1.742  -3.406  27.172  0.00  0.00    -0.274 OA
ATOM     58  N   LYS A   2       3.982  -3.370  27.609  0.00  0.00    -0.303 N 
ATOM     59  H   LYS A   2       4.860  -3.883  27.628  0.00  0.00    +0.149 HD
BRANCH  56  60
ATOM     60  CA  VAL A   1       2.985  -5.490  26.850  0.00  0.00    +0.140 C 
BRANCH  60  61
ATOM     61  N   VAL A   1       4.211  -5.629  26.036  0.00  0.00    -0.320 NA
ATOM     62  H1  VAL A   1       4.814  -4.830  26.250  0.00  0.00    +0.119 HD
ATOM     63  H2  VAL A   1       3.968  -5.507  25.052  0.00  0.00    +0.119 HD
ENDBRANCH  60  61
BRANCH  60  64
ATOM     64  CB  VAL A   1       3.054  -6.378  28.118  0.00  0.00    +0.009 C 
ATOM     65  CG2 VAL A   1       4.498  -6.714  28.513  0.00  0.00    +0.009 C 
ATOM     66  CG1 VAL A   1       2.363  -5.710  29.314  0.00  0.00    +0.009 C 
ENDBRANCH  60  64
ENDBRANCH  56  60
ENDBRANCH  55  58
BRANCH  55  67
ATOM     67  CB  LYS A   2       3.916  -1.603  29.337  0.00  0.00    +0.032 C 
BRANCH  67  68
ATOM     68  CG  LYS A   2       2.785  -0.610  29.623  0.00  0.00    +0.007 C 
BRANCH  68  69
ATOM     69  CD  LYS A   2       2.386   0.221  28.403  0.00  0.00    +0.051 C 
BRANCH  69  70
ATOM     70  CE  LYS A   2       3.121   1.558  28.436  0.00  0.00    +0.127 C 
BRANCH  70  71
ATOM     71  NZ  LYS A   2       2.924   2.276  27.159  0.00  0.00    +0.219 N 
ATOM     72  HZ1 LYS A   2       2.782   1.638  26.367  0.00  0.00    +0.199 HD
ATOM     73  HZ2 LYS A   2       3.760   2.851  26.964  0.00  0.00    +0.199 HD
ATOM     74  HZ3 LYS A   2       2.130   2.924  27.206  0.00  0.00    +0.199 HD
ENDBRANCH  70  71
ENDBRANCH  69  70
ENDBRANCH  68  69
ENDBRANCH  67  68
ENDBRANCH  55  67
ENDBRANCH  51  55
ENDBRANCH  50  52
BRANCH  50  75
ATOM     75  CB  LEU A   3       8.352  -3.133  25.941  0.00  0.00    +0.034 C 
BRANCH  75  76
ATOM     76  CG  LEU A   3       7.877  -4.588  25.749  0.00  0.00    -0.015 C 
ATOM     77  CD2 LEU A   3       8.872  -5.349  24.870  0.00  0.00    +0.007 C 
ATOM     78  CD1 LEU A   3       7.705  -5.321  27.081  0.00  0.00    +0.007 C 
ENDBRANCH  75  76
ENDBRANCH  50  75
ENDBRANCH  46  50
ENDBRANCH  45  48
BRANCH  45  79
ATOM     79  CB  GLN A   4       6.050  -2.904  21.636  0.00  0.00    +0.041 C 
BRANCH  79  80
ATOM     80  CG  GLN A   4       5.947  -4.416  21.473  0.00  0.00    +0.098 C 
BRANCH  80  81
ATOM     81  CD  GLN A   4       5.306  -5.010  22.713  0.00  0.00    +0.211 C 
ATOM     82  OE1 GLN A   4       5.739  -6.007  23.289  0.00  0.00    -0.276 OA
ATOM     83  NE2 GLN A   4       4.235  -4.312  23.187  0.00  0.00    -0.329 N 
ATOM     84 HE21 GLN A   4       3.823  -3.529  22.688  0.00  0.00    +0.145 HD
ATOM     85 HE22 GLN A   4       3.741  -4.647  24.004  0.00  0.00    +0.145 HD
ENDBRANCH  80  81
ENDBRANCH  79  80
ENDBRANCH  45  79
ENDBRANCH   1  45
TORSDOF 37
ENDMDL
MODEL 6
REMARK VINA RESULT:      -5.4      2.300      4.799
REMARK  Name = VKLQNNEL-mmff94.pdb
REMARK  43 active torsions:
REMARK  status: ('A' for Active; 'I' for Inactive)
REMARK    1  A    between atoms: _1  and  _2
REMARK    2  A    between atoms: _2  and  _3
REMARK    3  A    between atoms: _2  and  _5
REMARK    4  A    between atoms: _5  and  _6
REMARK    5  A    between atoms: _5  and  _7
REMARK    6  A    between atoms: _17  and  _18
REMARK    7  A    between atoms: _18  and  _19
REMARK    8  A    between atoms: _18  and  _21
REMARK    9  A    between atoms: _21  and  _22
REMARK   10  A    between atoms: _22  and  _23
REMARK   11  A    between atoms: _23  and  _24
REMARK   12  A    between atoms: _24  and  _25
REMARK   13  A    between atoms: _39  and  _40
REMARK   14  A    between atoms: _40  and  _41
REMARK   15  A    between atoms: _40  and  _43
REMARK   16  A    between atoms: _43  and  _44
REMARK   17  A    between atoms: _44  and  _45
REMARK   18  A    between atoms: _44  and  _46
REMARK   19  A    between atoms: _58  and  _59
REMARK   20  A    between atoms: _59  and  _60
REMARK   21  A    between atoms: _59  and  _62
REMARK   22  A    between atoms: _62  and  _63
REMARK   23  A    between atoms: _63  and  _64
REMARK   24  A    between atoms: _75  and  _76
REMARK   25  A    between atoms: _76  and  _77
REMARK   26  A    between atoms: _76  and  _79
REMARK   27  A    between atoms: _79  and  _80
REMARK   28  A    between atoms: _89  and  _90
REMARK   29  A    between atoms: _90  and  _91
REMARK   30  A    between atoms: _90  and  _93
REMARK   31  A    between atoms: _93  and  _94
REMARK   32  A    between atoms: _103  and  _104
REMARK   33  A    between atoms: _104  and  _105
REMARK   34  A    between atoms: _104  and  _107
REMARK   35  A    between atoms: _107  and  _108
REMARK   36  A    between atoms: _108  and  _109
REMARK   37  A    between atoms: _109  and  _110
REMARK   38  A    between atoms: _118  and  _119
REMARK   39  A    between atoms: _119  and  _120
REMARK   40  A    between atoms: _119  and  _122
REMARK   41  A    between atoms: _122  and  _123
REMARK   42  A    between atoms: _123  and  _124
REMARK   43  A    between atoms: _123  and  _125
REMARK                            x       y       z     vdW  Elec       q    Type
REMARK                         _______ _______ _______ _____ _____    ______ ____
ROOT
ATOM      1  C   GLN A   4       7.888  -2.152  22.635  0.00  0.00    +0.234 C 
ATOM      2  N   ASN A   5       7.326  -2.241  23.883  0.00  0.00    -0.302 N 
ATOM      3  H   ASN A   5       7.482  -1.521  24.582  0.00  0.00    +0.150 HD
ATOM      4  O   GLN A   4       7.770  -3.038  21.788  0.00  0.00    -0.274 OA
ENDROOT
BRANCH   2   5
ATOM      5  CA  ASN A   5       6.642  -3.453  24.333  0.00  0.00    +0.168 C 
BRANCH   5   6
ATOM      6  C   ASN A   5       5.189  -3.055  24.631  0.00  0.00    +0.234 C 
ATOM      7  O   ASN A   5       4.842  -1.879  24.741  0.00  0.00    -0.274 OA
ATOM      8  N   ASN A   6       4.322  -4.104  24.819  0.00  0.00    -0.302 N 
ATOM      9  H   ASN A   6       4.632  -5.068  24.718  0.00  0.00    +0.150 HD
BRANCH   8  10
ATOM     10  CA  ASN A   6       2.893  -3.905  25.055  0.00  0.00    +0.168 C 
BRANCH  10  11
ATOM     11  C   ASN A   6       2.663  -4.083  26.566  0.00  0.00    +0.234 C 
ATOM     12  N   GLU A   7       3.645  -3.568  27.372  0.00  0.00    -0.302 N 
ATOM     13  H   GLU A   7       4.516  -3.222  26.978  0.00  0.00    +0.150 HD
ATOM     14  O   ASN A   6       1.641  -4.607  27.007  0.00  0.00    -0.274 OA
BRANCH  12  15
ATOM     15  CA  GLU A   7       3.574  -3.598  28.836  0.00  0.00    +0.159 C 
BRANCH  15  16
ATOM     16  C   GLU A   7       3.770  -2.138  29.286  0.00  0.00    +0.234 C 
ATOM     17  N   LEU A   8       3.986  -1.238  28.276  0.00  0.00    -0.304 N 
ATOM     18  H   LEU A   8       3.931  -1.536  27.305  0.00  0.00    +0.149 HD
ATOM     19  O   GLU A   7       3.709  -1.820  30.472  0.00  0.00    -0.274 OA
BRANCH  17  20
ATOM     20  CA  LEU A   8       4.075   0.204  28.493  0.00  0.00    +0.136 C 
BRANCH  20  21
ATOM     21  C   LEU A   8       3.363   0.868  27.318  0.00  0.00    +0.245 C 
ATOM     22  O   LEU A   8       3.893   1.049  26.222  0.00  0.00    -0.299 OA
ENDBRANCH  20  21
BRANCH  20  23
ATOM     23  CB  LEU A   8       5.526   0.697  28.541  0.00  0.00    +0.032 C 
BRANCH  23  24
ATOM     24  CG  LEU A   8       5.957   1.327  29.881  0.00  0.00    -0.015 C 
ATOM     25  CD2 LEU A   8       5.108   2.546  30.247  0.00  0.00    +0.007 C 
ATOM     26  CD1 LEU A   8       7.431   1.738  29.812  0.00  0.00    +0.007 C 
ENDBRANCH  23  24
ENDBRANCH  20  23
ENDBRANCH  17  20
ENDBRANCH  15  16
BRANCH  15  27
ATOM     27  CB  GLU A   7       4.662  -4.508  29.423  0.00  0.00    +0.038 C 
BRANCH  27  28
ATOM     28  CG  GLU A   7       4.488  -5.984  29.067  0.00  0.00    +0.059 C 
BRANCH  28  29
ATOM     29  CD  GLU A   7       5.641  -6.476  28.231  0.00  0.00    +0.023 C 
ATOM     30  OE1 GLU A   7       6.813  -6.290  28.516  0.00  0.00    -0.851 OA
BRANCH  29  31
ATOM     31  OE2 GLU A   7       5.259  -7.171  27.138  0.00  0.00    -0.526 OA
ATOM     32  HE2 GLU A   7       5.898  -7.842  26.838  0.00  0.00    +0.290 HD
ENDBRANCH  29  31
ENDBRANCH  28  29
ENDBRANCH  27  28
ENDBRANCH  15  27
ENDBRANCH  12  15
ENDBRANCH  10  11
BRANCH  10  33
ATOM     33  CB  ASN A   6       2.030  -4.922  24.308  0.00  0.00    +0.127 C 
BRANCH  33  34
ATOM     34  CG  ASN A   6       2.750  -6.218  24.022  0.00  0.00    +0.213 C 
ATOM     35  ND2 ASN A   6       2.547  -6.750  22.783  0.00  0.00    -0.329 N 
ATOM     36 HD21 ASN A   6       2.251  -6.183  21.999  0.00  0.00    +0.145 HD
ATOM     37 HD22 ASN A   6       3.113  -7.557  22.553  0.00  0.00    +0.145 HD
ATOM     38  OD1 ASN A   6       3.457  -6.793  24.844  0.00  0.00    -0.276 OA
ENDBRANCH  33  34
ENDBRANCH  10  33
ENDBRANCH   8  10
ENDBRANCH   5   6
BRANCH   5  39
ATOM     39  CB  ASN A   5       7.247  -4.042  25.605  0.00  0.00    +0.127 C 
BRANCH  39  40
ATOM     40  CG  ASN A   5       8.372  -4.999  25.310  0.00  0.00    +0.213 C 
ATOM     41  OD1 ASN A   5       8.877  -5.109  24.197  0.00  0.00    -0.276 OA
ATOM     42  ND2 ASN A   5       8.801  -5.755  26.357  0.00  0.00    -0.329 N 
ATOM     43 HD21 ASN A   5       9.505  -6.455  26.158  0.00  0.00    +0.145 HD
ATOM     44 HD22 ASN A   5       8.307  -5.833  27.234  0.00  0.00    +0.145 HD
ENDBRANCH  39  40
ENDBRANCH   5  39
ENDBRANCH   2   5
BRANCH   1  45
ATOM     45  CA  GLN A   4       8.657  -0.851  22.338  0.00  0.00    +0.159 C 
BRANCH  45  48
ATOM     46  C   LEU A   3       8.341   1.516  23.042  0.00  0.00    +0.234 C 
ATOM     47  O   LEU A   3       9.463   1.849  22.655  0.00  0.00    -0.274 OA
ATOM     48  N   GLN A   4       7.879   0.226  22.946  0.00  0.00    -0.302 N 
ATOM     49  H   GLN A   4       6.955  -0.020  23.297  0.00  0.00    +0.150 HD
BRANCH  46  50
ATOM     50  CA  LEU A   3       7.363   2.513  23.702  0.00  0.00    +0.159 C 
BRANCH  50  52
ATOM     51  C   LYS A   2       5.395   3.571  22.603  0.00  0.00    +0.234 C 
ATOM     52  N   LEU A   3       6.131   2.455  22.919  0.00  0.00    -0.302 N 
ATOM     53  H   LEU A   3       5.964   1.585  22.424  0.00  0.00    +0.150 HD
ATOM     54  O   LYS A   2       5.618   4.686  23.071  0.00  0.00    -0.274 OA
BRANCH  51  55
ATOM     55  CA  LYS A   2       4.289   3.331  21.561  0.00  0.00    +0.159 C 
BRANCH  55  58
ATOM     56  C   VAL A   1       4.204   2.007  19.471  0.00  0.00    +0.231 C 
ATOM     57  O   VAL A   1       3.206   2.604  19.067  0.00  0.00    -0.274 OA
ATOM     58  N   LYS A   2       4.753   2.246  20.707  0.00  0.00    -0.303 N 
ATOM     59  H   LYS A   2       5.584   1.743  21.006  0.00  0.00    +0.149 HD
BRANCH  56  60
ATOM     60  CA  VAL A   1       4.940   0.932  18.633  0.00  0.00    +0.140 C 
BRANCH  60  61
ATOM     61  N   VAL A   1       5.597   1.609  17.495  0.00  0.00    -0.320 NA
ATOM     62  H1  VAL A   1       4.882   1.772  16.781  0.00  0.00    +0.119 HD
ATOM     63  H2  VAL A   1       6.249   0.957  17.056  0.00  0.00    +0.119 HD
ENDBRANCH  60  61
BRANCH  60  64
ATOM     64  CB  VAL A   1       5.972   0.160  19.493  0.00  0.00    +0.009 C 
ATOM     65  CG2 VAL A   1       5.681  -1.346  19.536  0.00  0.00    +0.009 C 
ATOM     66  CG1 VAL A   1       7.404   0.367  18.978  0.00  0.00    +0.009 C 
ENDBRANCH  60  64
ENDBRANCH  56  60
ENDBRANCH  55  58
BRANCH  55  67
ATOM     67  CB  LYS A   2       2.961   2.967  22.252  0.00  0.00    +0.032 C 
BRANCH  67  68
ATOM     68  CG  LYS A   2       2.085   4.194  22.523  0.00  0.00    +0.007 C 
BRANCH  68  69
ATOM     69  CD  LYS A   2       1.456   4.193  23.917  0.00  0.00    +0.051 C 
BRANCH  69  70
ATOM     70  CE  LYS A   2       2.342   4.986  24.875  0.00  0.00    +0.127 C 
BRANCH  70  71
ATOM     71  NZ  LYS A   2       3.079   4.062  25.765  0.00  0.00    +0.219 N 
ATOM     72  HZ1 LYS A   2       3.674   3.407  25.243  0.00  0.00    +0.199 HD
ATOM     73  HZ2 LYS A   2       2.400   3.514  26.316  0.00  0.00    +0.199 HD
ATOM     74  HZ3 LYS A   2       3.661   4.570  26.439  0.00  0.00    +0.199 HD
ENDBRANCH  70  71
ENDBRANCH  69  70
ENDBRANCH  68  69
ENDBRANCH  67  68
ENDBRANCH  55  67
ENDBRANCH  51  55
ENDBRANCH  50  52
BRANCH  50  75
ATOM     75  CB  LEU A   3       7.106   2.147  25.168  0.00  0.00    +0.034 C 
BRANCH  75  76
ATOM     76  CG  LEU A   3       7.536   3.232  26.176  0.00  0.00    -0.015 C 
ATOM     77  CD2 LEU A   3       8.323   4.330  25.455  0.00  0.00    +0.007 C 
ATOM     78  CD1 LEU A   3       6.342   3.852  26.904  0.00  0.00    +0.007 C 
ENDBRANCH  75  76
ENDBRANCH  50  75
ENDBRANCH  46  50
ENDBRANCH  45  48
BRANCH  45  79
ATOM     79  CB  GLN A   4      10.064  -0.909  22.947  0.00  0.00    +0.041 C 
BRANCH  79  80
ATOM     80  CG  GLN A   4      10.102  -1.583  24.314  0.00  0.00    +0.098 C 
BRANCH  80  81
ATOM     81  CD  GLN A   4       9.807  -0.553  25.387  0.00  0.00    +0.211 C 
ATOM     82  OE1 GLN A   4       8.976  -0.722  26.279  0.00  0.00    -0.276 OA
ATOM     83  NE2 GLN A   4      10.585   0.565  25.329  0.00  0.00    -0.329 N 
ATOM     84 HE21 GLN A   4      11.227   0.751  24.563  0.00  0.00    +0.145 HD
ATOM     85 HE22 GLN A   4      10.445   1.307  26.002  0.00  0.00    +0.145 HD
ENDBRANCH  80  81
ENDBRANCH  79  80
ENDBRANCH  45  79
ENDBRANCH   1  45
TORSDOF 37
ENDMDL
MODEL 7
REMARK VINA RESULT:      -5.4      2.390      8.701
REMARK  Name = VKLQNNEL-mmff94.pdb
REMARK  43 active torsions:
REMARK  status: ('A' for Active; 'I' for Inactive)
REMARK    1  A    between atoms: _1  and  _2
REMARK    2  A    between atoms: _2  and  _3
REMARK    3  A    between atoms: _2  and  _5
REMARK    4  A    between atoms: _5  and  _6
REMARK    5  A    between atoms: _5  and  _7
REMARK    6  A    between atoms: _17  and  _18
REMARK    7  A    between atoms: _18  and  _19
REMARK    8  A    between atoms: _18  and  _21
REMARK    9  A    between atoms: _21  and  _22
REMARK   10  A    between atoms: _22  and  _23
REMARK   11  A    between atoms: _23  and  _24
REMARK   12  A    between atoms: _24  and  _25
REMARK   13  A    between atoms: _39  and  _40
REMARK   14  A    between atoms: _40  and  _41
REMARK   15  A    between atoms: _40  and  _43
REMARK   16  A    between atoms: _43  and  _44
REMARK   17  A    between atoms: _44  and  _45
REMARK   18  A    between atoms: _44  and  _46
REMARK   19  A    between atoms: _58  and  _59
REMARK   20  A    between atoms: _59  and  _60
REMARK   21  A    between atoms: _59  and  _62
REMARK   22  A    between atoms: _62  and  _63
REMARK   23  A    between atoms: _63  and  _64
REMARK   24  A    between atoms: _75  and  _76
REMARK   25  A    between atoms: _76  and  _77
REMARK   26  A    between atoms: _76  and  _79
REMARK   27  A    between atoms: _79  and  _80
REMARK   28  A    between atoms: _89  and  _90
REMARK   29  A    between atoms: _90  and  _91
REMARK   30  A    between atoms: _90  and  _93
REMARK   31  A    between atoms: _93  and  _94
REMARK   32  A    between atoms: _103  and  _104
REMARK   33  A    between atoms: _104  and  _105
REMARK   34  A    between atoms: _104  and  _107
REMARK   35  A    between atoms: _107  and  _108
REMARK   36  A    between atoms: _108  and  _109
REMARK   37  A    between atoms: _109  and  _110
REMARK   38  A    between atoms: _118  and  _119
REMARK   39  A    between atoms: _119  and  _120
REMARK   40  A    between atoms: _119  and  _122
REMARK   41  A    between atoms: _122  and  _123
REMARK   42  A    between atoms: _123  and  _124
REMARK   43  A    between atoms: _123  and  _125
REMARK                            x       y       z     vdW  Elec       q    Type
REMARK                         _______ _______ _______ _____ _____    ______ ____
ROOT
ATOM      1  C   GLN A   4       7.698  -0.883  21.889  0.00  0.00    +0.234 C 
ATOM      2  N   ASN A   5       6.683   0.035  21.797  0.00  0.00    -0.302 N 
ATOM      3  H   ASN A   5       5.843  -0.055  22.360  0.00  0.00    +0.150 HD
ATOM      4  O   GLN A   4       8.701  -0.839  21.175  0.00  0.00    -0.274 OA
ENDROOT
BRANCH   2   5
ATOM      5  CA  ASN A   5       6.669   1.065  20.759  0.00  0.00    +0.168 C 
BRANCH   5   6
ATOM      6  C   ASN A   5       6.127   2.343  21.414  0.00  0.00    +0.234 C 
ATOM      7  O   ASN A   5       6.863   3.151  21.982  0.00  0.00    -0.274 OA
ATOM      8  N   ASN A   6       4.762   2.490  21.369  0.00  0.00    -0.302 N 
ATOM      9  H   ASN A   6       4.175   1.812  20.889  0.00  0.00    +0.150 HD
BRANCH   8  10
ATOM     10  CA  ASN A   6       4.085   3.675  21.894  0.00  0.00    +0.168 C 
BRANCH  10  11
ATOM     11  C   ASN A   6       4.081   3.542  23.426  0.00  0.00    +0.234 C 
ATOM     12  N   GLU A   7       4.539   4.640  24.110  0.00  0.00    -0.302 N 
ATOM     13  H   GLU A   7       4.973   5.417  23.619  0.00  0.00    +0.150 HD
ATOM     14  O   ASN A   6       3.647   2.537  23.987  0.00  0.00    -0.274 OA
BRANCH  12  15
ATOM     15  CA  GLU A   7       4.562   4.716  25.574  0.00  0.00    +0.159 C 
BRANCH  15  16
ATOM     16  C   GLU A   7       6.013   4.397  25.979  0.00  0.00    +0.234 C 
ATOM     17  N   LEU A   8       6.722   3.649  25.076  0.00  0.00    -0.304 N 
ATOM     18  H   LEU A   8       6.312   3.411  24.175  0.00  0.00    +0.149 HD
ATOM     19  O   GLU A   7       6.491   4.815  27.032  0.00  0.00    -0.274 OA
BRANCH  17  20
ATOM     20  CA  LEU A   8       8.143   3.346  25.226  0.00  0.00    +0.136 C 
BRANCH  20  21
ATOM     21  C   LEU A   8       8.906   4.496  24.576  0.00  0.00    +0.245 C 
ATOM     22  O   LEU A   8       9.226   5.520  25.181  0.00  0.00    -0.299 OA
ENDBRANCH  20  21
BRANCH  20  23
ATOM     23  CB  LEU A   8       8.534   2.033  24.537  0.00  0.00    +0.032 C 
BRANCH  23  24
ATOM     24  CG  LEU A   8      10.010   1.940  24.100  0.00  0.00    -0.015 C 
ATOM     25  CD2 LEU A   8      10.163   1.948  22.577  0.00  0.00    +0.007 C 
ATOM     26  CD1 LEU A   8      10.641   0.665  24.666  0.00  0.00    +0.007 C 
ENDBRANCH  23  24
ENDBRANCH  20  23
ENDBRANCH  17  20
ENDBRANCH  15  16
BRANCH  15  27
ATOM     27  CB  GLU A   7       3.580   3.712  26.195  0.00  0.00    +0.038 C 
BRANCH  27  28
ATOM     28  CG  GLU A   7       3.120   4.090  27.602  0.00  0.00    +0.059 C 
BRANCH  28  29
ATOM     29  CD  GLU A   7       2.276   2.997  28.204  0.00  0.00    +0.023 C 
ATOM     30  OE1 GLU A   7       1.633   3.127  29.234  0.00  0.00    -0.851 OA
BRANCH  29  31
ATOM     31  OE2 GLU A   7       2.274   1.855  27.484  0.00  0.00    -0.526 OA
ATOM     32  HE2 GLU A   7       3.147   1.584  27.148  0.00  0.00    +0.290 HD
ENDBRANCH  29  31
ENDBRANCH  28  29
ENDBRANCH  27  28
ENDBRANCH  15  27
ENDBRANCH  12  15
ENDBRANCH  10  11
BRANCH  10  33
ATOM     33  CB  ASN A   6       2.639   3.784  21.411  0.00  0.00    +0.127 C 
BRANCH  33  34
ATOM     34  CG  ASN A   6       2.381   3.032  20.127  0.00  0.00    +0.213 C 
ATOM     35  ND2 ASN A   6       2.604   3.727  18.976  0.00  0.00    -0.329 N 
ATOM     36 HD21 ASN A   6       3.219   4.529  18.945  0.00  0.00    +0.145 HD
ATOM     37 HD22 ASN A   6       2.537   3.191  18.119  0.00  0.00    +0.145 HD
ATOM     38  OD1 ASN A   6       1.970   1.875  20.094  0.00  0.00    -0.276 OA
ENDBRANCH  33  34
ENDBRANCH  10  33
ENDBRANCH   8  10
ENDBRANCH   5   6
BRANCH   5  39
ATOM     39  CB  ASN A   5       5.767   0.712  19.579  0.00  0.00    +0.127 C 
BRANCH  39  40
ATOM     40  CG  ASN A   5       6.495  -0.073  18.521  0.00  0.00    +0.213 C 
ATOM     41  OD1 ASN A   5       7.671   0.131  18.231  0.00  0.00    -0.276 OA
ATOM     42  ND2 ASN A   5       5.769  -1.033  17.884  0.00  0.00    -0.329 N 
ATOM     43 HD21 ASN A   5       6.221  -1.518  17.120  0.00  0.00    +0.145 HD
ATOM     44 HD22 ASN A   5       4.765  -1.117  17.956  0.00  0.00    +0.145 HD
ENDBRANCH  39  40
ENDBRANCH   5  39
ENDBRANCH   2   5
BRANCH   1  45
ATOM     45  CA  GLN A   4       7.528  -1.965  22.971  0.00  0.00    +0.159 C 
BRANCH  45  48
ATOM     46  C   LEU A   3       7.504  -1.410  25.398  0.00  0.00    +0.234 C 
ATOM     47  O   LEU A   3       8.471  -2.136  25.640  0.00  0.00    -0.274 OA
ATOM     48  N   GLN A   4       6.971  -1.285  24.138  0.00  0.00    -0.302 N 
ATOM     49  H   GLN A   4       6.158  -0.693  23.977  0.00  0.00    +0.150 HD
BRANCH  46  50
ATOM     50  CA  LEU A   3       6.783  -0.597  26.496  0.00  0.00    +0.159 C 
BRANCH  50  52
ATOM     51  C   LYS A   2       4.575  -1.727  26.701  0.00  0.00    +0.234 C 
ATOM     52  N   LEU A   3       5.858  -1.520  27.147  0.00  0.00    -0.302 N 
ATOM     53  H   LEU A   3       6.274  -2.173  27.802  0.00  0.00    +0.150 HD
ATOM     54  O   LYS A   2       4.045  -1.053  25.821  0.00  0.00    -0.274 OA
BRANCH  51  55
ATOM     55  CA  LYS A   2       3.858  -2.920  27.357  0.00  0.00    +0.159 C 
BRANCH  55  58
ATOM     56  C   VAL A   1       3.637  -4.363  25.357  0.00  0.00    +0.231 C 
ATOM     57  O   VAL A   1       4.856  -4.493  25.248  0.00  0.00    -0.274 OA
ATOM     58  N   LYS A   2       3.068  -3.554  26.310  0.00  0.00    -0.303 N 
ATOM     59  H   LYS A   2       2.056  -3.476  26.380  0.00  0.00    +0.149 HD
BRANCH  56  60
ATOM     60  CA  VAL A   1       2.625  -5.090  24.438  0.00  0.00    +0.140 C 
BRANCH  60  61
ATOM     61  N   VAL A   1       3.186  -5.120  23.071  0.00  0.00    -0.320 NA
ATOM     62  H1  VAL A   1       3.366  -6.099  22.833  0.00  0.00    +0.119 HD
ATOM     63  H2  VAL A   1       4.112  -4.690  23.085  0.00  0.00    +0.119 HD
ENDBRANCH  60  61
BRANCH  60  64
ATOM     64  CB  VAL A   1       2.329  -6.522  24.950  0.00  0.00    +0.009 C 
ATOM     65  CG2 VAL A   1       3.577  -7.414  24.931  0.00  0.00    +0.009 C 
ATOM     66  CG1 VAL A   1       1.761  -6.506  26.376  0.00  0.00    +0.009 C 
ENDBRANCH  60  64
ENDBRANCH  56  60
ENDBRANCH  55  58
BRANCH  55  67
ATOM     67  CB  LYS A   2       4.878  -3.904  27.959  0.00  0.00    +0.032 C 
BRANCH  67  68
ATOM     68  CG  LYS A   2       4.491  -4.362  29.369  0.00  0.00    +0.007 C 
BRANCH  68  69
ATOM     69  CD  LYS A   2       5.102  -5.708  29.757  0.00  0.00    +0.051 C 
BRANCH  69  70
ATOM     70  CE  LYS A   2       4.751  -6.751  28.698  0.00  0.00    +0.127 C 
BRANCH  70  71
ATOM     71  NZ  LYS A   2       3.686  -7.644  29.200  0.00  0.00    +0.219 N 
ATOM     72  HZ1 LYS A   2       3.622  -7.642  30.226  0.00  0.00    +0.199 HD
ATOM     73  HZ2 LYS A   2       3.884  -8.610  28.891  0.00  0.00    +0.199 HD
ATOM     74  HZ3 LYS A   2       2.769  -7.396  28.813  0.00  0.00    +0.199 HD
ENDBRANCH  70  71
ENDBRANCH  69  70
ENDBRANCH  68  69
ENDBRANCH  67  68
ENDBRANCH  55  67
ENDBRANCH  51  55
ENDBRANCH  50  52
BRANCH  50  75
ATOM     75  CB  LEU A   3       7.785  -0.016  27.500  0.00  0.00    +0.034 C 
BRANCH  75  76
ATOM     76  CG  LEU A   3       7.307   1.275  28.197  0.00  0.00    -0.015 C 
ATOM     77  CD2 LEU A   3       5.804   1.461  27.974  0.00  0.00    +0.007 C 
ATOM     78  CD1 LEU A   3       7.605   1.267  29.698  0.00  0.00    +0.007 C 
ENDBRANCH  75  76
ENDBRANCH  50  75
ENDBRANCH  46  50
ENDBRANCH  45  48
BRANCH  45  79
ATOM     79  CB  GLN A   4       6.576  -3.065  22.484  0.00  0.00    +0.041 C 
BRANCH  79  80
ATOM     80  CG  GLN A   4       7.236  -4.436  22.389  0.00  0.00    +0.098 C 
BRANCH  80  81
ATOM     81  CD  GLN A   4       6.327  -5.376  21.620  0.00  0.00    +0.211 C 
ATOM     82  OE1 GLN A   4       5.971  -5.175  20.459  0.00  0.00    -0.276 OA
ATOM     83  NE2 GLN A   4       5.979  -6.507  22.295  0.00  0.00    -0.329 N 
ATOM     84 HE21 GLN A   4       6.207  -6.657  23.274  0.00  0.00    +0.145 HD
ATOM     85 HE22 GLN A   4       5.365  -7.182  21.858  0.00  0.00    +0.145 HD
ENDBRANCH  80  81
ENDBRANCH  79  80
ENDBRANCH  45  79
ENDBRANCH   1  45
TORSDOF 37
ENDMDL
MODEL 8
REMARK VINA RESULT:      -5.3      2.188      6.420
REMARK  Name = VKLQNNEL-mmff94.pdb
REMARK  43 active torsions:
REMARK  status: ('A' for Active; 'I' for Inactive)
REMARK    1  A    between atoms: _1  and  _2
REMARK    2  A    between atoms: _2  and  _3
REMARK    3  A    between atoms: _2  and  _5
REMARK    4  A    between atoms: _5  and  _6
REMARK    5  A    between atoms: _5  and  _7
REMARK    6  A    between atoms: _17  and  _18
REMARK    7  A    between atoms: _18  and  _19
REMARK    8  A    between atoms: _18  and  _21
REMARK    9  A    between atoms: _21  and  _22
REMARK   10  A    between atoms: _22  and  _23
REMARK   11  A    between atoms: _23  and  _24
REMARK   12  A    between atoms: _24  and  _25
REMARK   13  A    between atoms: _39  and  _40
REMARK   14  A    between atoms: _40  and  _41
REMARK   15  A    between atoms: _40  and  _43
REMARK   16  A    between atoms: _43  and  _44
REMARK   17  A    between atoms: _44  and  _45
REMARK   18  A    between atoms: _44  and  _46
REMARK   19  A    between atoms: _58  and  _59
REMARK   20  A    between atoms: _59  and  _60
REMARK   21  A    between atoms: _59  and  _62
REMARK   22  A    between atoms: _62  and  _63
REMARK   23  A    between atoms: _63  and  _64
REMARK   24  A    between atoms: _75  and  _76
REMARK   25  A    between atoms: _76  and  _77
REMARK   26  A    between atoms: _76  and  _79
REMARK   27  A    between atoms: _79  and  _80
REMARK   28  A    between atoms: _89  and  _90
REMARK   29  A    between atoms: _90  and  _91
REMARK   30  A    between atoms: _90  and  _93
REMARK   31  A    between atoms: _93  and  _94
REMARK   32  A    between atoms: _103  and  _104
REMARK   33  A    between atoms: _104  and  _105
REMARK   34  A    between atoms: _104  and  _107
REMARK   35  A    between atoms: _107  and  _108
REMARK   36  A    between atoms: _108  and  _109
REMARK   37  A    between atoms: _109  and  _110
REMARK   38  A    between atoms: _118  and  _119
REMARK   39  A    between atoms: _119  and  _120
REMARK   40  A    between atoms: _119  and  _122
REMARK   41  A    between atoms: _122  and  _123
REMARK   42  A    between atoms: _123  and  _124
REMARK   43  A    between atoms: _123  and  _125
REMARK                            x       y       z     vdW  Elec       q    Type
REMARK                         _______ _______ _______ _____ _____    ______ ____
ROOT
ATOM      1  C   GLN A   4       6.649  -3.446  22.594  0.00  0.00    +0.234 C 
ATOM      2  N   ASN A   5       6.218  -3.747  23.860  0.00  0.00    -0.302 N 
ATOM      3  H   ASN A   5       5.790  -3.039  24.451  0.00  0.00    +0.150 HD
ATOM      4  O   GLN A   4       7.229  -4.264  21.877  0.00  0.00    -0.274 OA
ENDROOT
BRANCH   2   5
ATOM      5  CA  ASN A   5       6.523  -5.030  24.493  0.00  0.00    +0.168 C 
BRANCH   5   6
ATOM      6  C   ASN A   5       5.187  -5.611  24.977  0.00  0.00    +0.234 C 
ATOM      7  O   ASN A   5       5.090  -6.762  25.405  0.00  0.00    -0.274 OA
ATOM      8  N   ASN A   6       4.104  -4.776  24.846  0.00  0.00    -0.302 N 
ATOM      9  H   ASN A   6       4.210  -3.827  24.494  0.00  0.00    +0.150 HD
BRANCH   8  10
ATOM     10  CA  ASN A   6       2.768  -5.149  25.310  0.00  0.00    +0.168 C 
BRANCH  10  11
ATOM     11  C   ASN A   6       2.842  -5.250  26.843  0.00  0.00    +0.234 C 
ATOM     12  N   GLU A   7       3.297  -4.125  27.483  0.00  0.00    -0.302 N 
ATOM     13  H   GLU A   7       3.681  -3.345  26.957  0.00  0.00    +0.150 HD
ATOM     14  O   ASN A   6       2.468  -6.256  27.443  0.00  0.00    -0.274 OA
BRANCH  12  15
ATOM     15  CA  GLU A   7       3.387  -4.018  28.942  0.00  0.00    +0.159 C 
BRANCH  15  16
ATOM     16  C   GLU A   7       3.022  -2.557  29.269  0.00  0.00    +0.234 C 
ATOM     17  N   LEU A   8       3.843  -1.611  28.715  0.00  0.00    -0.304 N 
ATOM     18  H   LEU A   8       4.581  -1.887  28.070  0.00  0.00    +0.149 HD
ATOM     19  O   GLU A   7       2.044  -2.281  29.960  0.00  0.00    -0.274 OA
BRANCH  17  20
ATOM     20  CA  LEU A   8       3.591  -0.175  28.811  0.00  0.00    +0.136 C 
BRANCH  20  21
ATOM     21  C   LEU A   8       3.319   0.318  27.393  0.00  0.00    +0.245 C 
ATOM     22  O   LEU A   8       2.315   0.007  26.752  0.00  0.00    -0.299 OA
ENDBRANCH  20  21
BRANCH  20  23
ATOM     23  CB  LEU A   8       4.790   0.590  29.386  0.00  0.00    +0.032 C 
BRANCH  23  24
ATOM     24  CG  LEU A   8       5.365   1.686  28.467  0.00  0.00    -0.015 C 
ATOM     25  CD2 LEU A   8       6.841   1.450  28.140  0.00  0.00    +0.007 C 
ATOM     26  CD1 LEU A   8       5.206   3.057  29.131  0.00  0.00    +0.007 C 
ENDBRANCH  23  24
ENDBRANCH  20  23
ENDBRANCH  17  20
ENDBRANCH  15  16
BRANCH  15  27
ATOM     27  CB  GLU A   7       4.801  -4.358  29.434  0.00  0.00    +0.038 C 
BRANCH  27  28
ATOM     28  CG  GLU A   7       4.966  -5.812  29.875  0.00  0.00    +0.059 C 
BRANCH  28  29
ATOM     29  CD  GLU A   7       5.811  -6.580  28.893  0.00  0.00    +0.023 C 
ATOM     30  OE1 GLU A   7       6.994  -6.353  28.693  0.00  0.00    -0.851 OA
BRANCH  29  31
ATOM     31  OE2 GLU A   7       5.143  -7.570  28.263  0.00  0.00    -0.526 OA
ATOM     32  HE2 GLU A   7       4.308  -7.295  27.842  0.00  0.00    +0.290 HD
ENDBRANCH  29  31
ENDBRANCH  28  29
ENDBRANCH  27  28
ENDBRANCH  15  27
ENDBRANCH  12  15
ENDBRANCH  10  11
BRANCH  10  33
ATOM     33  CB  ASN A   6       2.311  -6.498  24.754  0.00  0.00    +0.127 C 
BRANCH  33  34
ATOM     34  CG  ASN A   6       2.052  -6.472  23.266  0.00  0.00    +0.213 C 
ATOM     35  ND2 ASN A   6       2.148  -7.671  22.626  0.00  0.00    -0.329 N 
ATOM     36 HD21 ASN A   6       2.041  -8.550  23.115  0.00  0.00    +0.145 HD
ATOM     37 HD22 ASN A   6       1.868  -7.673  21.653  0.00  0.00    +0.145 HD
ATOM     38  OD1 ASN A   6       1.797  -5.445  22.643  0.00  0.00    -0.276 OA
ENDBRANCH  33  34
ENDBRANCH  10  33
ENDBRANCH   8  10
ENDBRANCH   5   6
BRANCH   5  39
ATOM     39  CB  ASN A   5       7.451  -4.896  25.697  0.00  0.00    +0.127 C 
BRANCH  39  40
ATOM     40  CG  ASN A   5       8.880  -5.227  25.354  0.00  0.00    +0.213 C 
ATOM     41  OD1 ASN A   5       9.223  -5.618  24.243  0.00  0.00    -0.276 OA
ATOM     42  ND2 ASN A   5       9.785  -5.074  26.360  0.00  0.00    -0.329 N 
ATOM     43 HD21 ASN A   5      10.736  -5.362  26.167  0.00  0.00    +0.145 HD
ATOM     44 HD22 ASN A   5       9.532  -4.932  27.326  0.00  0.00    +0.145 HD
ENDBRANCH  39  40
ENDBRANCH   5  39
ENDBRANCH   2   5
BRANCH   1  45
ATOM     45  CA  GLN A   4       6.335  -2.023  22.098  0.00  0.00    +0.159 C 
BRANCH  45  48
ATOM     46  C   LEU A   3       7.348  -0.090  23.297  0.00  0.00    +0.234 C 
ATOM     47  O   LEU A   3       6.257   0.309  23.711  0.00  0.00    -0.274 OA
ATOM     48  N   GLN A   4       7.473  -1.197  22.494  0.00  0.00    -0.302 N 
ATOM     49  H   GLN A   4       8.388  -1.486  22.151  0.00  0.00    +0.150 HD
BRANCH  46  50
ATOM     50  CA  LEU A   3       8.672   0.639  23.617  0.00  0.00    +0.159 C 
BRANCH  50  52
ATOM     51  C   LYS A   2       8.263   3.042  24.123  0.00  0.00    +0.234 C 
ATOM     52  N   LEU A   3       8.478   2.031  23.219  0.00  0.00    -0.302 N 
ATOM     53  H   LEU A   3       8.737   2.256  22.264  0.00  0.00    +0.150 HD
ATOM     54  O   LYS A   2       8.063   2.851  25.321  0.00  0.00    -0.274 OA
BRANCH  51  55
ATOM     55  CA  LYS A   2       8.345   4.458  23.527  0.00  0.00    +0.159 C 
BRANCH  55  58
ATOM     56  C   VAL A   1       5.964   4.438  22.852  0.00  0.00    +0.231 C 
ATOM     57  O   VAL A   1       6.142   3.529  22.043  0.00  0.00    -0.274 OA
ATOM     58  N   LYS A   2       6.995   5.002  23.563  0.00  0.00    -0.303 N 
ATOM     59  H   LYS A   2       6.811   5.746  24.232  0.00  0.00    +0.149 HD
BRANCH  56  60
ATOM     60  CA  VAL A   1       4.567   5.039  23.152  0.00  0.00    +0.140 C 
BRANCH  60  61
ATOM     61  N   VAL A   1       3.678   4.720  22.014  0.00  0.00    -0.320 NA
ATOM     62  H1  VAL A   1       3.632   5.550  21.418  0.00  0.00    +0.119 HD
ATOM     63  H2  VAL A   1       2.726   4.606  22.363  0.00  0.00    +0.119 HD
ENDBRANCH  60  61
BRANCH  60  64
ATOM     64  CB  VAL A   1       3.992   4.488  24.480  0.00  0.00    +0.009 C 
ATOM     65  CG2 VAL A   1       4.401   3.031  24.730  0.00  0.00    +0.009 C 
ATOM     66  CG1 VAL A   1       4.438   5.334  25.682  0.00  0.00    +0.009 C 
ENDBRANCH  60  64
ENDBRANCH  56  60
ENDBRANCH  55  58
BRANCH  55  67
ATOM     67  CB  LYS A   2       9.320   5.333  24.337  0.00  0.00    +0.032 C 
BRANCH  67  68
ATOM     68  CG  LYS A   2      10.590   5.677  23.553  0.00  0.00    +0.007 C 
BRANCH  68  69
ATOM     69  CD  LYS A   2      11.615   4.542  23.533  0.00  0.00    +0.051 C 
BRANCH  69  70
ATOM     70  CE  LYS A   2      12.984   5.100  23.153  0.00  0.00    +0.127 C 
BRANCH  70  71
ATOM     71  NZ  LYS A   2      12.996   5.487  21.726  0.00  0.00    +0.219 N 
ATOM     72  HZ1 LYS A   2      12.080   5.360  21.277  0.00  0.00    +0.199 HD
ATOM     73  HZ2 LYS A   2      13.685   4.903  21.225  0.00  0.00    +0.199 HD
ATOM     74  HZ3 LYS A   2      13.292   6.461  21.599  0.00  0.00    +0.199 HD
ENDBRANCH  70  71
ENDBRANCH  69  70
ENDBRANCH  68  69
ENDBRANCH  67  68
ENDBRANCH  55  67
ENDBRANCH  51  55
ENDBRANCH  50  52
BRANCH  50  75
ATOM     75  CB  LEU A   3       9.015   0.531  25.107  0.00  0.00    +0.034 C 
BRANCH  75  76
ATOM     76  CG  LEU A   3       9.516  -0.862  25.542  0.00  0.00    -0.015 C 
ATOM     77  CD2 LEU A   3       8.447  -1.559  26.388  0.00  0.00    +0.007 C 
ATOM     78  CD1 LEU A   3       9.879  -1.745  24.347  0.00  0.00    +0.007 C 
ENDBRANCH  75  76
ENDBRANCH  50  75
ENDBRANCH  46  50
ENDBRANCH  45  48
BRANCH  45  79
ATOM     79  CB  GLN A   4       6.166  -2.011  20.574  0.00  0.00    +0.041 C 
BRANCH  79  80
ATOM     80  CG  GLN A   4       5.691  -0.668  20.030  0.00  0.00    +0.098 C 
BRANCH  80  81
ATOM     81  CD  GLN A   4       6.474  -0.332  18.775  0.00  0.00    +0.211 C 
ATOM     82  OE1 GLN A   4       6.038  -0.500  17.637  0.00  0.00    -0.276 OA
ATOM     83  NE2 GLN A   4       7.692   0.238  19.003  0.00  0.00    -0.329 N 
ATOM     84 HE21 GLN A   4       8.096   0.323  19.932  0.00  0.00    +0.145 HD
ATOM     85 HE22 GLN A   4       8.284   0.483  18.221  0.00  0.00    +0.145 HD
ENDBRANCH  80  81
ENDBRANCH  79  80
ENDBRANCH  45  79
ENDBRANCH   1  45
TORSDOF 37
ENDMDL
MODEL 9
REMARK VINA RESULT:      -5.3      1.255      2.302
REMARK  Name = VKLQNNEL-mmff94.pdb
REMARK  43 active torsions:
REMARK  status: ('A' for Active; 'I' for Inactive)
REMARK    1  A    between atoms: _1  and  _2
REMARK    2  A    between atoms: _2  and  _3
REMARK    3  A    between atoms: _2  and  _5
REMARK    4  A    between atoms: _5  and  _6
REMARK    5  A    between atoms: _5  and  _7
REMARK    6  A    between atoms: _17  and  _18
REMARK    7  A    between atoms: _18  and  _19
REMARK    8  A    between atoms: _18  and  _21
REMARK    9  A    between atoms: _21  and  _22
REMARK   10  A    between atoms: _22  and  _23
REMARK   11  A    between atoms: _23  and  _24
REMARK   12  A    between atoms: _24  and  _25
REMARK   13  A    between atoms: _39  and  _40
REMARK   14  A    between atoms: _40  and  _41
REMARK   15  A    between atoms: _40  and  _43
REMARK   16  A    between atoms: _43  and  _44
REMARK   17  A    between atoms: _44  and  _45
REMARK   18  A    between atoms: _44  and  _46
REMARK   19  A    between atoms: _58  and  _59
REMARK   20  A    between atoms: _59  and  _60
REMARK   21  A    between atoms: _59  and  _62
REMARK   22  A    between atoms: _62  and  _63
REMARK   23  A    between atoms: _63  and  _64
REMARK   24  A    between atoms: _75  and  _76
REMARK   25  A    between atoms: _76  and  _77
REMARK   26  A    between atoms: _76  and  _79
REMARK   27  A    between atoms: _79  and  _80
REMARK   28  A    between atoms: _89  and  _90
REMARK   29  A    between atoms: _90  and  _91
REMARK   30  A    between atoms: _90  and  _93
REMARK   31  A    between atoms: _93  and  _94
REMARK   32  A    between atoms: _103  and  _104
REMARK   33  A    between atoms: _104  and  _105
REMARK   34  A    between atoms: _104  and  _107
REMARK   35  A    between atoms: _107  and  _108
REMARK   36  A    between atoms: _108  and  _109
REMARK   37  A    between atoms: _109  and  _110
REMARK   38  A    between atoms: _118  and  _119
REMARK   39  A    between atoms: _119  and  _120
REMARK   40  A    between atoms: _119  and  _122
REMARK   41  A    between atoms: _122  and  _123
REMARK   42  A    between atoms: _123  and  _124
REMARK   43  A    between atoms: _123  and  _125
REMARK                            x       y       z     vdW  Elec       q    Type
REMARK                         _______ _______ _______ _____ _____    ______ ____
ROOT
ATOM      1  C   GLN A   4      10.155   0.972  24.512  0.00  0.00    +0.234 C 
ATOM      2  N   ASN A   5       9.160   0.030  24.558  0.00  0.00    -0.302 N 
ATOM      3  H   ASN A   5       8.209   0.257  24.281  0.00  0.00    +0.150 HD
ATOM      4  O   GLN A   4      11.302   0.747  24.900  0.00  0.00    -0.274 OA
ENDROOT
BRANCH   2   5
ATOM      5  CA  ASN A   5       9.365  -1.277  25.182  0.00  0.00    +0.168 C 
BRANCH   5   6
ATOM      6  C   ASN A   5       9.173  -2.327  24.079  0.00  0.00    +0.234 C 
ATOM      7  O   ASN A   5      10.008  -2.508  23.193  0.00  0.00    -0.274 OA
ATOM      8  N   ASN A   6       7.980  -3.008  24.122  0.00  0.00    -0.302 N 
ATOM      9  H   ASN A   6       7.307  -2.845  24.867  0.00  0.00    +0.150 HD
BRANCH   8  10
ATOM     10  CA  ASN A   6       7.658  -4.081  23.183  0.00  0.00    +0.168 C 
BRANCH  10  11
ATOM     11  C   ASN A   6       6.129  -4.077  23.011  0.00  0.00    +0.234 C 
ATOM     12  N   GLU A   7       5.408  -4.085  24.178  0.00  0.00    -0.302 N 
ATOM     13  H   GLU A   7       5.867  -4.224  25.074  0.00  0.00    +0.150 HD
ATOM     14  O   ASN A   6       5.603  -4.018  21.900  0.00  0.00    -0.274 OA
BRANCH  12  15
ATOM     15  CA  GLU A   7       3.943  -4.032  24.212  0.00  0.00    +0.159 C 
BRANCH  15  16
ATOM     16  C   GLU A   7       3.593  -3.188  25.453  0.00  0.00    +0.234 C 
ATOM     17  N   LEU A   8       4.625  -2.980  26.330  0.00  0.00    -0.304 N 
ATOM     18  H   LEU A   8       5.563  -3.305  26.103  0.00  0.00    +0.149 HD
ATOM     19  O   GLU A   7       2.467  -2.723  25.613  0.00  0.00    -0.274 OA
BRANCH  17  20
ATOM     20  CA  LEU A   8       4.521  -2.110  27.498  0.00  0.00    +0.136 C 
BRANCH  20  21
ATOM     21  C   LEU A   8       4.012  -2.978  28.646  0.00  0.00    +0.245 C 
ATOM     22  O   LEU A   8       2.957  -2.758  29.242  0.00  0.00    -0.299 OA
ENDBRANCH  20  21
BRANCH  20  23
ATOM     23  CB  LEU A   8       3.543  -0.950  27.276  0.00  0.00    +0.032 C 
BRANCH  23  24
ATOM     24  CG  LEU A   8       4.075   0.439  27.681  0.00  0.00    -0.015 C 
ATOM     25  CD2 LEU A   8       3.799   0.758  29.151  0.00  0.00    +0.007 C 
ATOM     26  CD1 LEU A   8       3.437   1.517  26.799  0.00  0.00    +0.007 C 
ENDBRANCH  23  24
ENDBRANCH  20  23
ENDBRANCH  17  20
ENDBRANCH  15  16
BRANCH  15  27
ATOM     27  CB  GLU A   7       3.342  -5.441  24.314  0.00  0.00    +0.038 C 
BRANCH  27  28
ATOM     28  CG  GLU A   7       4.311  -6.486  24.864  0.00  0.00    +0.059 C 
BRANCH  28  29
ATOM     29  CD  GLU A   7       4.113  -6.676  26.345  0.00  0.00    +0.023 C 
ATOM     30  OE1 GLU A   7       3.062  -6.453  26.924  0.00  0.00    -0.851 OA
BRANCH  29  31
ATOM     31  OE2 GLU A   7       5.208  -7.144  26.982  0.00  0.00    -0.526 OA
ATOM     32  HE2 GLU A   7       6.020  -7.156  26.442  0.00  0.00    +0.290 HD
ENDBRANCH  29  31
ENDBRANCH  28  29
ENDBRANCH  27  28
ENDBRANCH  15  27
ENDBRANCH  12  15
ENDBRANCH  10  11
BRANCH  10  33
ATOM     33  CB  ASN A   6       8.085  -5.456  23.696  0.00  0.00    +0.127 C 
BRANCH  33  34
ATOM     34  CG  ASN A   6       8.399  -5.469  25.174  0.00  0.00    +0.213 C 
ATOM     35  ND2 ASN A   6       9.711  -5.638  25.501  0.00  0.00    -0.329 N 
ATOM     36 HD21 ASN A   6      10.457  -5.415  24.856  0.00  0.00    +0.145 HD
ATOM     37 HD22 ASN A   6       9.935  -5.537  26.483  0.00  0.00    +0.145 HD
ATOM     38  OD1 ASN A   6       7.541  -5.365  26.047  0.00  0.00    -0.276 OA
ENDBRANCH  33  34
ENDBRANCH  10  33
ENDBRANCH   8  10
ENDBRANCH   5   6
BRANCH   5  39
ATOM     39  CB  ASN A   5       8.368  -1.568  26.300  0.00  0.00    +0.127 C 
BRANCH  39  40
ATOM     40  CG  ASN A   5       7.650  -0.326  26.760  0.00  0.00    +0.213 C 
ATOM     41  OD1 ASN A   5       6.806   0.245  26.076  0.00  0.00    -0.276 OA
ATOM     42  ND2 ASN A   5       7.996   0.142  27.990  0.00  0.00    -0.329 N 
ATOM     43 HD21 ASN A   5       7.577   1.016  28.282  0.00  0.00    +0.145 HD
ATOM     44 HD22 ASN A   5       8.801  -0.181  28.507  0.00  0.00    +0.145 HD
ENDBRANCH  39  40
ENDBRANCH   5  39
ENDBRANCH   2   5
BRANCH   1  45
ATOM     45  CA  GLN A   4       9.762   2.334  23.910  0.00  0.00    +0.159 C 
BRANCH  45  48
ATOM     46  C   LEU A   3       8.251   3.916  25.099  0.00  0.00    +0.234 C 
ATOM     47  O   LEU A   3       9.119   4.788  25.178  0.00  0.00    -0.274 OA
ATOM     48  N   GLN A   4       8.484   2.692  24.521  0.00  0.00    -0.302 N 
ATOM     49  H   GLN A   4       7.750   1.986  24.492  0.00  0.00    +0.150 HD
BRANCH  46  50
ATOM     50  CA  LEU A   3       6.830   4.108  25.673  0.00  0.00    +0.159 C 
BRANCH  50  52
ATOM     51  C   LYS A   2       5.273   4.258  23.736  0.00  0.00    +0.234 C 
ATOM     52  N   LEU A   3       5.913   3.518  24.700  0.00  0.00    -0.302 N 
ATOM     53  H   LEU A   3       5.946   2.507  24.620  0.00  0.00    +0.150 HD
ATOM     54  O   LYS A   2       5.291   5.486  23.699  0.00  0.00    -0.274 OA
BRANCH  51  55
ATOM     55  CA  LYS A   2       4.564   3.420  22.657  0.00  0.00    +0.159 C 
BRANCH  55  58
ATOM     56  C   VAL A   1       6.438   1.958  21.964  0.00  0.00    +0.231 C 
ATOM     57  O   VAL A   1       6.937   2.836  21.261  0.00  0.00    -0.274 OA
ATOM     58  N   LYS A   2       5.244   2.133  22.620  0.00  0.00    -0.303 N 
ATOM     59  H   LYS A   2       4.864   1.390  23.201  0.00  0.00    +0.149 HD
BRANCH  56  60
ATOM     60  CA  VAL A   1       7.099   0.574  22.181  0.00  0.00    +0.140 C 
BRANCH  60  61
ATOM     61  N   VAL A   1       6.320  -0.148  23.209  0.00  0.00    -0.320 NA
ATOM     62  H1  VAL A   1       6.959  -0.373  23.977  0.00  0.00    +0.119 HD
ATOM     63  H2  VAL A   1       6.044  -1.057  22.835  0.00  0.00    +0.119 HD
ENDBRANCH  60  61
BRANCH  60  64
ATOM     64  CB  VAL A   1       7.161  -0.232  20.860  0.00  0.00    +0.009 C 
ATOM     65  CG2 VAL A   1       6.344   0.424  19.740  0.00  0.00    +0.009 C 
ATOM     66  CG1 VAL A   1       8.606  -0.407  20.373  0.00  0.00    +0.009 C 
ENDBRANCH  60  64
ENDBRANCH  56  60
ENDBRANCH  55  58
BRANCH  55  67
ATOM     67  CB  LYS A   2       3.071   3.253  22.993  0.00  0.00    +0.032 C 
BRANCH  67  68
ATOM     68  CG  LYS A   2       2.205   4.363  22.389  0.00  0.00    +0.007 C 
BRANCH  68  69
ATOM     69  CD  LYS A   2       2.117   4.300  20.864  0.00  0.00    +0.051 C 
BRANCH  69  70
ATOM     70  CE  LYS A   2       2.050   2.841  20.418  0.00  0.00    +0.127 C 
BRANCH  70  71
ATOM     71  NZ  LYS A   2       3.111   2.566  19.425  0.00  0.00    +0.219 N 
ATOM     72  HZ1 LYS A   2       3.667   1.736  19.664  0.00  0.00    +0.199 HD
ATOM     73  HZ2 LYS A   2       3.747   3.378  19.379  0.00  0.00    +0.199 HD
ATOM     74  HZ3 LYS A   2       2.725   2.444  18.482  0.00  0.00    +0.199 HD
ENDBRANCH  70  71
ENDBRANCH  69  70
ENDBRANCH  68  69
ENDBRANCH  67  68
ENDBRANCH  55  67
ENDBRANCH  51  55
ENDBRANCH  50  52
BRANCH  50  75
ATOM     75  CB  LEU A   3       6.693   3.435  27.044  0.00  0.00    +0.034 C 
BRANCH  75  76
ATOM     76  CG  LEU A   3       6.101   4.346  28.139  0.00  0.00    -0.015 C 
ATOM     77  CD2 LEU A   3       4.688   4.784  27.746  0.00  0.00    +0.007 C 
ATOM     78  CD1 LEU A   3       6.062   3.657  29.505  0.00  0.00    +0.007 C 
ENDBRANCH  75  76
ENDBRANCH  50  75
ENDBRANCH  46  50
ENDBRANCH  45  48
BRANCH  45  79
ATOM     79  CB  GLN A   4      10.827   3.390  24.234  0.00  0.00    +0.041 C 
BRANCH  79  80
ATOM     80  CG  GLN A   4      11.848   3.579  23.117  0.00  0.00    +0.098 C 
BRANCH  80  81
ATOM     81  CD  GLN A   4      12.114   5.061  22.929  0.00  0.00    +0.211 C 
ATOM     82  OE1 GLN A   4      13.209   5.517  22.602  0.00  0.00    -0.276 OA
ATOM     83  NE2 GLN A   4      11.020   5.858  23.091  0.00  0.00    -0.329 N 
ATOM     84 HE21 GLN A   4      10.127   5.507  23.426  0.00  0.00    +0.145 HD
ATOM     85 HE22 GLN A   4      11.113   6.861  22.995  0.00  0.00    +0.145 HD
ENDBRANCH  80  81
ENDBRANCH  79  80
ENDBRANCH  45  79
ENDBRANCH   1  45
TORSDOF 37
ENDMDL
MODEL 10
REMARK VINA RESULT:      -5.3      2.409      8.534
REMARK  Name = VKLQNNEL-mmff94.pdb
REMARK  43 active torsions:
REMARK  status: ('A' for Active; 'I' for Inactive)
REMARK    1  A    between atoms: _1  and  _2
REMARK    2  A    between atoms: _2  and  _3
REMARK    3  A    between atoms: _2  and  _5
REMARK    4  A    between atoms: _5  and  _6
REMARK    5  A    between atoms: _5  and  _7
REMARK    6  A    between atoms: _17  and  _18
REMARK    7  A    between atoms: _18  and  _19
REMARK    8  A    between atoms: _18  and  _21
REMARK    9  A    between atoms: _21  and  _22
REMARK   10  A    between atoms: _22  and  _23
REMARK   11  A    between atoms: _23  and  _24
REMARK   12  A    between atoms: _24  and  _25
REMARK   13  A    between atoms: _39  and  _40
REMARK   14  A    between atoms: _40  and  _41
REMARK   15  A    between atoms: _40  and  _43
REMARK   16  A    between atoms: _43  and  _44
REMARK   17  A    between atoms: _44  and  _45
REMARK   18  A    between atoms: _44  and  _46
REMARK   19  A    between atoms: _58  and  _59
REMARK   20  A    between atoms: _59  and  _60
REMARK   21  A    between atoms: _59  and  _62
REMARK   22  A    between atoms: _62  and  _63
REMARK   23  A    between atoms: _63  and  _64
REMARK   24  A    between atoms: _75  and  _76
REMARK   25  A    between atoms: _76  and  _77
REMARK   26  A    between atoms: _76  and  _79
REMARK   27  A    between atoms: _79  and  _80
REMARK   28  A    between atoms: _89  and  _90
REMARK   29  A    between atoms: _90  and  _91
REMARK   30  A    between atoms: _90  and  _93
REMARK   31  A    between atoms: _93  and  _94
REMARK   32  A    between atoms: _103  and  _104
REMARK   33  A    between atoms: _104  and  _105
REMARK   34  A    between atoms: _104  and  _107
REMARK   35  A    between atoms: _107  and  _108
REMARK   36  A    between atoms: _108  and  _109
REMARK   37  A    between atoms: _109  and  _110
REMARK   38  A    between atoms: _118  and  _119
REMARK   39  A    between atoms: _119  and  _120
REMARK   40  A    between atoms: _119  and  _122
REMARK   41  A    between atoms: _122  and  _123
REMARK   42  A    between atoms: _123  and  _124
REMARK   43  A    between atoms: _123  and  _125
REMARK                            x       y       z     vdW  Elec       q    Type
REMARK                         _______ _______ _______ _____ _____    ______ ____
ROOT
ATOM      1  C   GLN A   4       5.455  -3.639  24.465  0.00  0.00    +0.234 C 
ATOM      2  N   ASN A   5       5.377  -3.438  23.111  0.00  0.00    -0.302 N 
ATOM      3  H   ASN A   5       4.484  -3.467  22.627  0.00  0.00    +0.150 HD
ATOM      4  O   GLN A   4       6.527  -3.674  25.071  0.00  0.00    -0.274 OA
ENDROOT
BRANCH   2   5
ATOM      5  CA  ASN A   5       6.574  -3.367  22.273  0.00  0.00    +0.168 C 
BRANCH   5   6
ATOM      6  C   ASN A   5       6.345  -2.225  21.273  0.00  0.00    +0.234 C 
ATOM      7  O   ASN A   5       5.540  -2.318  20.346  0.00  0.00    -0.274 OA
ATOM      8  N   ASN A   6       7.141  -1.120  21.454  0.00  0.00    -0.302 N 
ATOM      9  H   ASN A   6       7.795  -1.065  22.231  0.00  0.00    +0.150 HD
BRANCH   8  10
ATOM     10  CA  ASN A   6       7.014   0.079  20.627  0.00  0.00    +0.168 C 
BRANCH  10  11
ATOM     11  C   ASN A   6       7.319   1.281  21.538  0.00  0.00    +0.234 C 
ATOM     12  N   GLU A   7       6.219   1.945  22.019  0.00  0.00    -0.302 N 
ATOM     13  H   GLU A   7       5.287   1.727  21.677  0.00  0.00    +0.150 HD
ATOM     14  O   ASN A   6       8.471   1.584  21.845  0.00  0.00    -0.274 OA
BRANCH  12  15
ATOM     15  CA  GLU A   7       6.312   3.081  22.940  0.00  0.00    +0.159 C 
BRANCH  15  16
ATOM     16  C   GLU A   7       4.972   3.828  22.807  0.00  0.00    +0.234 C 
ATOM     17  N   LEU A   8       3.854   3.038  22.862  0.00  0.00    -0.304 N 
ATOM     18  H   LEU A   8       3.939   2.044  23.061  0.00  0.00    +0.149 HD
ATOM     19  O   GLU A   7       4.929   5.051  22.685  0.00  0.00    -0.274 OA
BRANCH  17  20
ATOM     20  CA  LEU A   8       2.494   3.572  22.873  0.00  0.00    +0.136 C 
BRANCH  20  21
ATOM     21  C   LEU A   8       1.991   3.457  24.309  0.00  0.00    +0.245 C 
ATOM     22  O   LEU A   8       1.597   2.401  24.803  0.00  0.00    -0.299 OA
ENDBRANCH  20  21
BRANCH  20  23
ATOM     23  CB  LEU A   8       1.553   2.790  21.948  0.00  0.00    +0.032 C 
BRANCH  23  24
ATOM     24  CG  LEU A   8       1.547   3.256  20.478  0.00  0.00    -0.015 C 
ATOM     25  CD2 LEU A   8       2.564   2.495  19.626  0.00  0.00    +0.007 C 
ATOM     26  CD1 LEU A   8       1.847   4.757  20.407  0.00  0.00    +0.007 C 
ENDBRANCH  23  24
ENDBRANCH  20  23
ENDBRANCH  17  20
ENDBRANCH  15  16
BRANCH  15  27
ATOM     27  CB  GLU A   7       7.492   3.993  22.574  0.00  0.00    +0.038 C 
BRANCH  27  28
ATOM     28  CG  GLU A   7       8.246   4.541  23.786  0.00  0.00    +0.059 C 
BRANCH  28  29
ATOM     29  CD  GLU A   7       9.724   4.625  23.508  0.00  0.00    +0.023 C 
ATOM     30  OE1 GLU A   7      10.482   3.671  23.577  0.00  0.00    -0.851 OA
BRANCH  29  31
ATOM     31  OE2 GLU A   7      10.137   5.859  23.148  0.00  0.00    -0.526 OA
ATOM     32  HE2 GLU A   7       9.653   6.591  23.572  0.00  0.00    +0.290 HD
ENDBRANCH  29  31
ENDBRANCH  28  29
ENDBRANCH  27  28
ENDBRANCH  15  27
ENDBRANCH  12  15
ENDBRANCH  10  11
BRANCH  10  33
ATOM     33  CB  ASN A   6       5.608   0.248  20.053  0.00  0.00    +0.127 C 
BRANCH  33  34
ATOM     34  CG  ASN A   6       5.596   0.440  18.555  0.00  0.00    +0.213 C 
ATOM     35  ND2 ASN A   6       5.624  -0.701  17.809  0.00  0.00    -0.329 N 
ATOM     36 HD21 ASN A   6       5.319  -1.591  18.180  0.00  0.00    +0.145 HD
ATOM     37 HD22 ASN A   6       5.506  -0.577  16.812  0.00  0.00    +0.145 HD
ATOM     38  OD1 ASN A   6       5.588   1.543  18.016  0.00  0.00    -0.276 OA
ENDBRANCH  33  34
ENDBRANCH  10  33
ENDBRANCH   8  10
ENDBRANCH   5   6
BRANCH   5  39
ATOM     39  CB  ASN A   5       6.829  -4.650  21.486  0.00  0.00    +0.127 C 
BRANCH  39  40
ATOM     40  CG  ASN A   5       7.225  -5.797  22.378  0.00  0.00    +0.213 C 
ATOM     41  OD1 ASN A   5       8.217  -5.766  23.100  0.00  0.00    -0.276 OA
ATOM     42  ND2 ASN A   5       6.416  -6.891  22.337  0.00  0.00    -0.329 N 
ATOM     43 HD21 ASN A   5       6.710  -7.697  22.874  0.00  0.00    +0.145 HD
ATOM     44 HD22 ASN A   5       5.703  -7.036  21.637  0.00  0.00    +0.145 HD
ENDBRANCH  39  40
ENDBRANCH   5  39
ENDBRANCH   2   5
BRANCH   1  45
ATOM     45  CA  GLN A   4       4.110  -3.788  25.200  0.00  0.00    +0.159 C 
BRANCH  45  48
ATOM     46  C   LEU A   3       4.110  -2.395  27.263  0.00  0.00    +0.234 C 
ATOM     47  O   LEU A   3       4.458  -3.337  27.978  0.00  0.00    -0.274 OA
ATOM     48  N   GLN A   4       3.898  -2.531  25.913  0.00  0.00    -0.302 N 
ATOM     49  H   GLN A   4       3.589  -1.736  25.355  0.00  0.00    +0.150 HD
BRANCH  46  50
ATOM     50  CA  LEU A   3       3.848  -0.980  27.827  0.00  0.00    +0.159 C 
BRANCH  50  52
ATOM     51  C   LYS A   2       5.654   0.606  28.473  0.00  0.00    +0.234 C 
ATOM     52  N   LEU A   3       5.047  -0.197  27.539  0.00  0.00    -0.302 N 
ATOM     53  H   LEU A   3       5.544  -0.448  26.691  0.00  0.00    +0.150 HD
ATOM     54  O   LYS A   2       5.167   0.856  29.573  0.00  0.00    -0.274 OA
BRANCH  51  55
ATOM     55  CA  LYS A   2       7.038   1.134  28.055  0.00  0.00    +0.159 C 
BRANCH  55  58
ATOM     56  C   VAL A   1       8.288  -0.424  26.594  0.00  0.00    +0.231 C 
ATOM     57  O   VAL A   1       9.045  -0.759  27.504  0.00  0.00    -0.274 OA
ATOM     58  N   LYS A   2       7.330   0.547  26.756  0.00  0.00    -0.303 N 
ATOM     59  H   LYS A   2       6.714   0.794  25.985  0.00  0.00    +0.149 HD
BRANCH  56  60
ATOM     60  CA  VAL A   1       8.336  -1.056  25.181  0.00  0.00    +0.140 C 
BRANCH  60  61
ATOM     61  N   VAL A   1       7.517  -0.221  24.277  0.00  0.00    -0.320 NA
ATOM     62  H1  VAL A   1       6.567  -0.601  24.285  0.00  0.00    +0.119 HD
ATOM     63  H2  VAL A   1       7.838  -0.360  23.319  0.00  0.00    +0.119 HD
ENDBRANCH  60  61
BRANCH  60  64
ATOM     64  CB  VAL A   1       9.793  -1.170  24.665  0.00  0.00    +0.009 C 
ATOM     65  CG2 VAL A   1       9.898  -2.053  23.415  0.00  0.00    +0.009 C 
ATOM     66  CG1 VAL A   1      10.388   0.208  24.343  0.00  0.00    +0.009 C 
ENDBRANCH  60  64
ENDBRANCH  56  60
ENDBRANCH  55  58
BRANCH  55  67
ATOM     67  CB  LYS A   2       7.033   2.673  27.984  0.00  0.00    +0.032 C 
BRANCH  67  68
ATOM     68  CG  LYS A   2       6.519   3.196  26.639  0.00  0.00    +0.007 C 
BRANCH  68  69
ATOM     69  CD  LYS A   2       5.105   3.774  26.715  0.00  0.00    +0.051 C 
BRANCH  69  70
ATOM     70  CE  LYS A   2       4.895   4.425  28.080  0.00  0.00    +0.127 C 
BRANCH  70  71
ATOM     71  NZ  LYS A   2       5.449   5.796  28.077  0.00  0.00    +0.219 N 
ATOM     72  HZ1 LYS A   2       6.456   5.812  27.875  0.00  0.00    +0.199 HD
ATOM     73  HZ2 LYS A   2       5.299   6.220  29.007  0.00  0.00    +0.199 HD
ATOM     74  HZ3 LYS A   2       4.968   6.399  27.401  0.00  0.00    +0.199 HD
ENDBRANCH  70  71
ENDBRANCH  69  70
ENDBRANCH  68  69
ENDBRANCH  67  68
ENDBRANCH  55  67
ENDBRANCH  51  55
ENDBRANCH  50  52
BRANCH  50  75
ATOM     75  CB  LEU A   3       2.606  -0.351  27.184  0.00  0.00    +0.034 C 
BRANCH  75  76
ATOM     76  CG  LEU A   3       1.696   0.405  28.173  0.00  0.00    -0.015 C 
ATOM     77  CD2 LEU A   3       1.784  -0.239  29.559  0.00  0.00    +0.007 C 
ATOM     78  CD1 LEU A   3       2.057   1.889  28.274  0.00  0.00    +0.007 C 
ENDBRANCH  75  76
ENDBRANCH  50  75
ENDBRANCH  46  50
ENDBRANCH  45  48
BRANCH  45  79
ATOM     79  CB  GLN A   4       2.976  -4.036  24.197  0.00  0.00    +0.041 C 
BRANCH  79  80
ATOM     80  CG  GLN A   4       2.342  -5.416  24.331  0.00  0.00    +0.098 C 
BRANCH  80  81
ATOM     81  CD  GLN A   4       2.927  -6.339  23.279  0.00  0.00    +0.211 C 
ATOM     82  OE1 GLN A   4       3.676  -5.955  22.381  0.00  0.00    -0.276 OA
ATOM     83  NE2 GLN A   4       2.607  -7.654  23.438  0.00  0.00    -0.329 N 
ATOM     84 HE21 GLN A   4       1.938  -7.979  24.130  0.00  0.00    +0.145 HD
ATOM     85 HE22 GLN A   4       2.946  -8.336  22.772  0.00  0.00    +0.145 HD
ENDBRANCH  80  81
ENDBRANCH  79  80
ENDBRANCH  45  79
ENDBRANCH   1  45
TORSDOF 37
ENDMDL
MODEL 11
REMARK VINA RESULT:      -5.3      2.109      7.615
REMARK  Name = VKLQNNEL-mmff94.pdb
REMARK  43 active torsions:
REMARK  status: ('A' for Active; 'I' for Inactive)
REMARK    1  A    between atoms: _1  and  _2
REMARK    2  A    between atoms: _2  and  _3
REMARK    3  A    between atoms: _2  and  _5
REMARK    4  A    between atoms: _5  and  _6
REMARK    5  A    between atoms: _5  and  _7
REMARK    6  A    between atoms: _17  and  _18
REMARK    7  A    between atoms: _18  and  _19
REMARK    8  A    between atoms: _18  and  _21
REMARK    9  A    between atoms: _21  and  _22
REMARK   10  A    between atoms: _22  and  _23
REMARK   11  A    between atoms: _23  and  _24
REMARK   12  A    between atoms: _24  and  _25
REMARK   13  A    between atoms: _39  and  _40
REMARK   14  A    between atoms: _40  and  _41
REMARK   15  A    between atoms: _40  and  _43
REMARK   16  A    between atoms: _43  and  _44
REMARK   17  A    between atoms: _44  and  _45
REMARK   18  A    between atoms: _44  and  _46
REMARK   19  A    between atoms: _58  and  _59
REMARK   20  A    between atoms: _59  and  _60
REMARK   21  A    between atoms: _59  and  _62
REMARK   22  A    between atoms: _62  and  _63
REMARK   23  A    between atoms: _63  and  _64
REMARK   24  A    between atoms: _75  and  _76
REMARK   25  A    between atoms: _76  and  _77
REMARK   26  A    between atoms: _76  and  _79
REMARK   27  A    between atoms: _79  and  _80
REMARK   28  A    between atoms: _89  and  _90
REMARK   29  A    between atoms: _90  and  _91
REMARK   30  A    between atoms: _90  and  _93
REMARK   31  A    between atoms: _93  and  _94
REMARK   32  A    between atoms: _103  and  _104
REMARK   33  A    between atoms: _104  and  _105
REMARK   34  A    between atoms: _104  and  _107
REMARK   35  A    between atoms: _107  and  _108
REMARK   36  A    between atoms: _108  and  _109
REMARK   37  A    between atoms: _109  and  _110
REMARK   38  A    between atoms: _118  and  _119
REMARK   39  A    between atoms: _119  and  _120
REMARK   40  A    between atoms: _119  and  _122
REMARK   41  A    between atoms: _122  and  _123
REMARK   42  A    between atoms: _123  and  _124
REMARK   43  A    between atoms: _123  and  _125
REMARK                            x       y       z     vdW  Elec       q    Type
REMARK                         _______ _______ _______ _____ _____    ______ ____
ROOT
ATOM      1  C   GLN A   4       5.750  -3.979  22.463  0.00  0.00    +0.234 C 
ATOM      2  N   ASN A   5       4.906  -3.734  23.515  0.00  0.00    -0.302 N 
ATOM      3  H   ASN A   5       5.200  -3.162  24.302  0.00  0.00    +0.150 HD
ATOM      4  O   GLN A   4       5.447  -4.718  21.525  0.00  0.00    -0.274 OA
ENDROOT
BRANCH   2   5
ATOM      5  CA  ASN A   5       3.627  -4.430  23.653  0.00  0.00    +0.168 C 
BRANCH   5   6
ATOM      6  C   ASN A   5       3.060  -4.043  25.026  0.00  0.00    +0.234 C 
ATOM      7  O   ASN A   5       2.184  -3.188  25.157  0.00  0.00    -0.274 OA
ATOM      8  N   ASN A   6       3.640  -4.679  26.098  0.00  0.00    -0.302 N 
ATOM      9  H   ASN A   6       4.358  -5.386  25.965  0.00  0.00    +0.150 HD
BRANCH   8  10
ATOM     10  CA  ASN A   6       3.183  -4.472  27.471  0.00  0.00    +0.168 C 
BRANCH  10  11
ATOM     11  C   ASN A   6       4.068  -3.366  28.072  0.00  0.00    +0.234 C 
ATOM     12  N   GLU A   7       3.678  -2.083  27.784  0.00  0.00    -0.302 N 
ATOM     13  H   GLU A   7       2.939  -1.900  27.110  0.00  0.00    +0.150 HD
ATOM     14  O   ASN A   6       5.025  -3.628  28.799  0.00  0.00    -0.274 OA
BRANCH  12  15
ATOM     15  CA  GLU A   7       4.369  -0.901  28.310  0.00  0.00    +0.159 C 
BRANCH  15  16
ATOM     16  C   GLU A   7       3.280   0.177  28.459  0.00  0.00    +0.234 C 
ATOM     17  N   LEU A   8       3.640   1.434  28.050  0.00  0.00    -0.304 N 
ATOM     18  H   LEU A   8       4.543   1.588  27.606  0.00  0.00    +0.149 HD
ATOM     19  O   GLU A   7       2.163  -0.097  28.895  0.00  0.00    -0.274 OA
BRANCH  17  20
ATOM     20  CA  LEU A   8       2.710   2.559  28.002  0.00  0.00    +0.136 C 
BRANCH  20  21
ATOM     21  C   LEU A   8       2.190   2.637  26.570  0.00  0.00    +0.245 C 
ATOM     22  O   LEU A   8       2.766   2.117  25.614  0.00  0.00    -0.299 OA
ENDBRANCH  20  21
BRANCH  20  23
ATOM     23  CB  LEU A   8       3.385   3.888  28.363  0.00  0.00    +0.032 C 
BRANCH  23  24
ATOM     24  CG  LEU A   8       3.347   4.255  29.859  0.00  0.00    -0.015 C 
ATOM     25  CD2 LEU A   8       4.653   3.904  30.575  0.00  0.00    +0.007 C 
ATOM     26  CD1 LEU A   8       2.183   3.530  30.543  0.00  0.00    +0.007 C 
ENDBRANCH  23  24
ENDBRANCH  20  23
ENDBRANCH  17  20
ENDBRANCH  15  16
BRANCH  15  27
ATOM     27  CB  GLU A   7       5.478  -0.439  27.354  0.00  0.00    +0.038 C 
BRANCH  27  28
ATOM     28  CG  GLU A   7       5.154  -0.667  25.879  0.00  0.00    +0.059 C 
BRANCH  28  29
ATOM     29  CD  GLU A   7       5.765   0.410  25.021  0.00  0.00    +0.023 C 
ATOM     30  OE1 GLU A   7       6.954   0.687  25.026  0.00  0.00    -0.851 OA
BRANCH  29  31
ATOM     31  OE2 GLU A   7       4.876   1.033  24.218  0.00  0.00    -0.526 OA
ATOM     32  HE2 GLU A   7       5.029   0.904  23.264  0.00  0.00    +0.290 HD
ENDBRANCH  29  31
ENDBRANCH  28  29
ENDBRANCH  27  28
ENDBRANCH  15  27
ENDBRANCH  12  15
ENDBRANCH  10  11
BRANCH  10  33
ATOM     33  CB  ASN A   6       3.322  -5.728  28.331  0.00  0.00    +0.127 C 
BRANCH  33  34
ATOM     34  CG  ASN A   6       2.434  -6.862  27.877  0.00  0.00    +0.213 C 
ATOM     35  ND2 ASN A   6       2.457  -7.982  28.653  0.00  0.00    -0.329 N 
ATOM     36 HD21 ASN A   6       2.740  -7.955  29.623  0.00  0.00    +0.145 HD
ATOM     37 HD22 ASN A   6       1.782  -8.698  28.412  0.00  0.00    +0.145 HD
ATOM     38  OD1 ASN A   6       1.746  -6.815  26.861  0.00  0.00    -0.276 OA
ENDBRANCH  33  34
ENDBRANCH  10  33
ENDBRANCH   8  10
ENDBRANCH   5   6
BRANCH   5  39
ATOM     39  CB  ASN A   5       3.766  -5.949  23.603  0.00  0.00    +0.127 C 
BRANCH  39  40
ATOM     40  CG  ASN A   5       2.526  -6.617  23.067  0.00  0.00    +0.213 C 
ATOM     41  OD1 ASN A   5       1.666  -6.012  22.433  0.00  0.00    -0.276 OA
ATOM     42  ND2 ASN A   5       2.403  -7.947  23.332  0.00  0.00    -0.329 N 
ATOM     43 HD21 ASN A   5       1.542  -8.393  23.043  0.00  0.00    +0.145 HD
ATOM     44 HD22 ASN A   5       2.983  -8.443  23.993  0.00  0.00    +0.145 HD
ENDBRANCH  39  40
ENDBRANCH   5  39
ENDBRANCH   2   5
BRANCH   1  45
ATOM     45  CA  GLN A   4       7.102  -3.243  22.502  0.00  0.00    +0.159 C 
BRANCH  45  48
ATOM     46  C   LEU A   3       7.876  -1.125  21.446  0.00  0.00    +0.234 C 
ATOM     47  O   LEU A   3       9.065  -1.441  21.530  0.00  0.00    -0.274 OA
ATOM     48  N   GLN A   4       6.864  -1.928  21.910  0.00  0.00    -0.302 N 
ATOM     49  H   GLN A   4       5.893  -1.626  21.845  0.00  0.00    +0.150 HD
BRANCH  46  50
ATOM     50  CA  LEU A   3       7.418   0.220  20.838  0.00  0.00    +0.159 C 
BRANCH  50  52
ATOM     51  C   LYS A   2       7.643   2.478  21.860  0.00  0.00    +0.234 C 
ATOM     52  N   LEU A   3       8.180   1.259  21.526  0.00  0.00    -0.302 N 
ATOM     53  H   LEU A   3       9.051   0.959  21.950  0.00  0.00    +0.150 HD
ATOM     54  O   LYS A   2       6.538   2.860  21.481  0.00  0.00    -0.274 OA
BRANCH  51  55
ATOM     55  CA  LYS A   2       8.518   3.323  22.802  0.00  0.00    +0.159 C 
BRANCH  55  58
ATOM     56  C   VAL A   1       7.059   4.793  24.158  0.00  0.00    +0.231 C 
ATOM     57  O   VAL A   1       7.224   5.749  23.402  0.00  0.00    -0.274 OA
ATOM     58  N   LYS A   2       7.711   3.597  23.983  0.00  0.00    -0.303 N 
ATOM     59  H   LYS A   2       7.544   2.823  24.621  0.00  0.00    +0.149 HD
BRANCH  56  60
ATOM     60  CA  VAL A   1       6.108   4.838  25.380  0.00  0.00    +0.140 C 
BRANCH  60  61
ATOM     61  N   VAL A   1       5.476   3.508  25.517  0.00  0.00    -0.320 NA
ATOM     62  H1  VAL A   1       5.608   3.204  26.486  0.00  0.00    +0.119 HD
ATOM     63  H2  VAL A   1       6.006   2.833  24.965  0.00  0.00    +0.119 HD
ENDBRANCH  60  61
BRANCH  60  64
ATOM     64  CB  VAL A   1       6.868   5.229  26.671  0.00  0.00    +0.009 C 
ATOM     65  CG2 VAL A   1       7.082   4.031  27.605  0.00  0.00    +0.009 C 
ATOM     66  CG1 VAL A   1       8.236   5.852  26.354  0.00  0.00    +0.009 C 
ENDBRANCH  60  64
ENDBRANCH  56  60
ENDBRANCH  55  58
BRANCH  55  67
ATOM     67  CB  LYS A   2       9.807   2.566  23.172  0.00  0.00    +0.032 C 
BRANCH  67  68
ATOM     68  CG  LYS A   2       9.788   2.041  24.611  0.00  0.00    +0.007 C 
BRANCH  68  69
ATOM     69  CD  LYS A   2      10.638   0.786  24.810  0.00  0.00    +0.051 C 
BRANCH  69  70
ATOM     70  CE  LYS A   2       9.725  -0.430  24.947  0.00  0.00    +0.127 C 
BRANCH  70  71
ATOM     71  NZ  LYS A   2       9.336  -0.615  26.362  0.00  0.00    +0.219 N 
ATOM     72  HZ1 LYS A   2       9.027  -1.573  26.562  0.00  0.00    +0.199 HD
ATOM     73  HZ2 LYS A   2       8.559   0.028  26.583  0.00  0.00    +0.199 HD
ATOM     74  HZ3 LYS A   2      10.102  -0.376  27.000  0.00  0.00    +0.199 HD
ENDBRANCH  70  71
ENDBRANCH  69  70
ENDBRANCH  68  69
ENDBRANCH  67  68
ENDBRANCH  55  67
ENDBRANCH  51  55
ENDBRANCH  50  52
BRANCH  50  75
ATOM     75  CB  LEU A   3       7.669   0.256  19.326  0.00  0.00    +0.034 C 
BRANCH  75  76
ATOM     76  CG  LEU A   3       6.385   0.303  18.472  0.00  0.00    -0.015 C 
ATOM     77  CD2 LEU A   3       5.856  -1.116  18.250  0.00  0.00    +0.007 C 
ATOM     78  CD1 LEU A   3       5.294   1.162  19.115  0.00  0.00    +0.007 C 
ENDBRANCH  75  76
ENDBRANCH  50  75
ENDBRANCH  46  50
ENDBRANCH  45  48
BRANCH  45  79
ATOM     79  CB  GLN A   4       7.593  -3.100  23.948  0.00  0.00    +0.041 C 
BRANCH  79  80
ATOM     80  CG  GLN A   4       8.010  -4.425  24.577  0.00  0.00    +0.098 C 
BRANCH  80  81
ATOM     81  CD  GLN A   4       7.274  -4.609  25.890  0.00  0.00    +0.211 C 
ATOM     82  OE1 GLN A   4       6.638  -5.623  26.175  0.00  0.00    -0.276 OA
ATOM     83  NE2 GLN A   4       7.422  -3.579  26.772  0.00  0.00    -0.329 N 
ATOM     84 HE21 GLN A   4       7.886  -2.708  26.529  0.00  0.00    +0.145 HD
ATOM     85 HE22 GLN A   4       6.954  -3.616  27.668  0.00  0.00    +0.145 HD
ENDBRANCH  80  81
ENDBRANCH  79  80
ENDBRANCH  45  79
ENDBRANCH   1  45
TORSDOF 37
ENDMDL
MODEL 12
REMARK VINA RESULT:      -5.2      2.196      6.199
REMARK  Name = VKLQNNEL-mmff94.pdb
REMARK  43 active torsions:
REMARK  status: ('A' for Active; 'I' for Inactive)
REMARK    1  A    between atoms: _1  and  _2
REMARK    2  A    between atoms: _2  and  _3
REMARK    3  A    between atoms: _2  and  _5
REMARK    4  A    between atoms: _5  and  _6
REMARK    5  A    between atoms: _5  and  _7
REMARK    6  A    between atoms: _17  and  _18
REMARK    7  A    between atoms: _18  and  _19
REMARK    8  A    between atoms: _18  and  _21
REMARK    9  A    between atoms: _21  and  _22
REMARK   10  A    between atoms: _22  and  _23
REMARK   11  A    between atoms: _23  and  _24
REMARK   12  A    between atoms: _24  and  _25
REMARK   13  A    between atoms: _39  and  _40
REMARK   14  A    between atoms: _40  and  _41
REMARK   15  A    between atoms: _40  and  _43
REMARK   16  A    between atoms: _43  and  _44
REMARK   17  A    between atoms: _44  and  _45
REMARK   18  A    between atoms: _44  and  _46
REMARK   19  A    between atoms: _58  and  _59
REMARK   20  A    between atoms: _59  and  _60
REMARK   21  A    between atoms: _59  and  _62
REMARK   22  A    between atoms: _62  and  _63
REMARK   23  A    between atoms: _63  and  _64
REMARK   24  A    between atoms: _75  and  _76
REMARK   25  A    between atoms: _76  and  _77
REMARK   26  A    between atoms: _76  and  _79
REMARK   27  A    between atoms: _79  and  _80
REMARK   28  A    between atoms: _89  and  _90
REMARK   29  A    between atoms: _90  and  _91
REMARK   30  A    between atoms: _90  and  _93
REMARK   31  A    between atoms: _93  and  _94
REMARK   32  A    between atoms: _103  and  _104
REMARK   33  A    between atoms: _104  and  _105
REMARK   34  A    between atoms: _104  and  _107
REMARK   35  A    between atoms: _107  and  _108
REMARK   36  A    between atoms: _108  and  _109
REMARK   37  A    between atoms: _109  and  _110
REMARK   38  A    between atoms: _118  and  _119
REMARK   39  A    between atoms: _119  and  _120
REMARK   40  A    between atoms: _119  and  _122
REMARK   41  A    between atoms: _122  and  _123
REMARK   42  A    between atoms: _123  and  _124
REMARK   43  A    between atoms: _123  and  _125
REMARK                            x       y       z     vdW  Elec       q    Type
REMARK                         _______ _______ _______ _____ _____    ______ ____
ROOT
ATOM      1  C   GLN A   4       7.695  -3.658  22.489  0.00  0.00    +0.234 C 
ATOM      2  N   ASN A   5       7.220  -3.806  23.767  0.00  0.00    -0.302 N 
ATOM      3  H   ASN A   5       7.460  -3.139  24.496  0.00  0.00    +0.150 HD
ATOM      4  O   GLN A   4       7.475  -4.481  21.599  0.00  0.00    -0.274 OA
ENDROOT
BRANCH   2   5
ATOM      5  CA  ASN A   5       6.515  -5.015  24.192  0.00  0.00    +0.168 C 
BRANCH   5   6
ATOM      6  C   ASN A   5       5.020  -4.668  24.215  0.00  0.00    +0.234 C 
ATOM      7  O   ASN A   5       4.517  -3.883  23.410  0.00  0.00    -0.274 OA
ATOM      8  N   ASN A   6       4.299  -5.253  25.228  0.00  0.00    -0.302 N 
ATOM      9  H   ASN A   6       4.736  -5.902  25.878  0.00  0.00    +0.150 HD
BRANCH   8  10
ATOM     10  CA  ASN A   6       2.854  -5.076  25.363  0.00  0.00    +0.168 C 
BRANCH  10  11
ATOM     11  C   ASN A   6       2.596  -4.621  26.810  0.00  0.00    +0.234 C 
ATOM     12  N   GLU A   7       3.720  -4.373  27.555  0.00  0.00    -0.302 N 
ATOM     13  H   GLU A   7       4.643  -4.610  27.203  0.00  0.00    +0.150 HD
ATOM     14  O   ASN A   6       1.456  -4.448  27.240  0.00  0.00    -0.274 OA
BRANCH  12  15
ATOM     15  CA  GLU A   7       3.671  -3.883  28.937  0.00  0.00    +0.159 C 
BRANCH  15  16
ATOM     16  C   GLU A   7       3.959  -2.373  28.847  0.00  0.00    +0.234 C 
ATOM     17  N   LEU A   8       4.834  -2.001  27.860  0.00  0.00    -0.304 N 
ATOM     18  H   LEU A   8       5.183  -2.692  27.199  0.00  0.00    +0.149 HD
ATOM     19  O   GLU A   7       3.412  -1.571  29.601  0.00  0.00    -0.274 OA
BRANCH  17  20
ATOM     20  CA  LEU A   8       5.139  -0.609  27.542  0.00  0.00    +0.136 C 
BRANCH  20  21
ATOM     21  C   LEU A   8       5.442  -0.558  26.047  0.00  0.00    +0.245 C 
ATOM     22  O   LEU A   8       5.963  -1.488  25.432  0.00  0.00    -0.299 OA
ENDBRANCH  20  21
BRANCH  20  23
ATOM     23  CB  LEU A   8       6.355  -0.087  28.317  0.00  0.00    +0.032 C 
BRANCH  23  24
ATOM     24  CG  LEU A   8       6.148   1.270  29.018  0.00  0.00    -0.015 C 
ATOM     25  CD2 LEU A   8       6.719   2.434  28.206  0.00  0.00    +0.007 C 
ATOM     26  CD1 LEU A   8       6.807   1.246  30.401  0.00  0.00    +0.007 C 
ENDBRANCH  23  24
ENDBRANCH  20  23
ENDBRANCH  17  20
ENDBRANCH  15  16
BRANCH  15  27
ATOM     27  CB  GLU A   7       4.713  -4.594  29.812  0.00  0.00    +0.038 C 
BRANCH  27  28
ATOM     28  CG  GLU A   7       5.847  -5.240  29.017  0.00  0.00    +0.059 C 
BRANCH  28  29
ATOM     29  CD  GLU A   7       5.786  -6.742  29.114  0.00  0.00    +0.023 C 
ATOM     30  OE1 GLU A   7       6.727  -7.437  29.463  0.00  0.00    -0.851 OA
BRANCH  29  31
ATOM     31  OE2 GLU A   7       4.578  -7.256  28.801  0.00  0.00    -0.526 OA
ATOM     32  HE2 GLU A   7       3.980  -6.640  28.339  0.00  0.00    +0.290 HD
ENDBRANCH  29  31
ENDBRANCH  28  29
ENDBRANCH  27  28
ENDBRANCH  15  27
ENDBRANCH  12  15
ENDBRANCH  10  11
BRANCH  10  33
ATOM     33  CB  ASN A   6       2.080  -6.371  25.115  0.00  0.00    +0.127 C 
BRANCH  33  34
ATOM     34  CG  ASN A   6       2.812  -7.338  24.215  0.00  0.00    +0.213 C 
ATOM     35  ND2 ASN A   6       2.374  -7.398  22.926  0.00  0.00    -0.329 N 
ATOM     36 HD21 ASN A   6       1.867  -6.636  22.496  0.00  0.00    +0.145 HD
ATOM     37 HD22 ASN A   6       2.933  -7.963  22.298  0.00  0.00    +0.145 HD
ATOM     38  OD1 ASN A   6       3.729  -8.058  24.602  0.00  0.00    -0.276 OA
ENDBRANCH  33  34
ENDBRANCH  10  33
ENDBRANCH   8  10
ENDBRANCH   5   6
BRANCH   5  39
ATOM     39  CB  ASN A   5       6.919  -5.483  25.587  0.00  0.00    +0.127 C 
BRANCH  39  40
ATOM     40  CG  ASN A   5       8.262  -4.941  26.002  0.00  0.00    +0.213 C 
ATOM     41  OD1 ASN A   5       9.322  -5.440  25.637  0.00  0.00    -0.276 OA
ATOM     42  ND2 ASN A   5       8.239  -3.856  26.824  0.00  0.00    -0.329 N 
ATOM     43 HD21 ASN A   5       9.131  -3.525  27.171  0.00  0.00    +0.145 HD
ATOM     44 HD22 ASN A   5       7.408  -3.523  27.292  0.00  0.00    +0.145 HD
ENDBRANCH  39  40
ENDBRANCH   5  39
ENDBRANCH   2   5
BRANCH   1  45
ATOM     45  CA  GLN A   4       8.500  -2.374  22.216  0.00  0.00    +0.159 C 
BRANCH  45  48
ATOM     46  C   LEU A   3       7.433  -0.417  21.107  0.00  0.00    +0.234 C 
ATOM     47  O   LEU A   3       8.198  -0.465  20.141  0.00  0.00    -0.274 OA
ATOM     48  N   GLN A   4       7.523  -1.289  22.165  0.00  0.00    -0.302 N 
ATOM     49  H   GLN A   4       6.889  -1.207  22.958  0.00  0.00    +0.150 HD
BRANCH  46  50
ATOM     50  CA  LEU A   3       6.323   0.650  21.232  0.00  0.00    +0.159 C 
BRANCH  50  52
ATOM     51  C   LYS A   2       5.937   2.544  22.802  0.00  0.00    +0.234 C 
ATOM     52  N   LEU A   3       6.615   1.402  22.450  0.00  0.00    -0.302 N 
ATOM     53  H   LEU A   3       7.183   0.922  23.139  0.00  0.00    +0.150 HD
ATOM     54  O   LYS A   2       5.139   3.115  22.061  0.00  0.00    -0.274 OA
BRANCH  51  55
ATOM     55  CA  LYS A   2       6.213   3.033  24.234  0.00  0.00    +0.159 C 
BRANCH  55  58
ATOM     56  C   VAL A   1       4.209   3.782  25.481  0.00  0.00    +0.231 C 
ATOM     57  O   VAL A   1       4.537   4.966  25.408  0.00  0.00    -0.274 OA
ATOM     58  N   LYS A   2       5.003   2.769  25.001  0.00  0.00    -0.303 N 
ATOM     59  H   LYS A   2       4.698   1.802  25.069  0.00  0.00    +0.149 HD
BRANCH  56  60
ATOM     60  CA  VAL A   1       2.876   3.314  26.115  0.00  0.00    +0.140 C 
BRANCH  60  61
ATOM     61  N   VAL A   1       2.184   2.445  25.139  0.00  0.00    -0.320 NA
ATOM     62  H1  VAL A   1       1.184   2.478  25.354  0.00  0.00    +0.119 HD
ATOM     63  H2  VAL A   1       2.450   1.476  25.315  0.00  0.00    +0.119 HD
ENDBRANCH  60  61
BRANCH  60  64
ATOM     64  CB  VAL A   1       3.122   2.566  27.450  0.00  0.00    +0.009 C 
ATOM     65  CG2 VAL A   1       3.066   3.507  28.661  0.00  0.00    +0.009 C 
ATOM     66  CG1 VAL A   1       2.102   1.438  27.661  0.00  0.00    +0.009 C 
ENDBRANCH  60  64
ENDBRANCH  56  60
ENDBRANCH  55  58
BRANCH  55  67
ATOM     67  CB  LYS A   2       7.425   2.299  24.835  0.00  0.00    +0.032 C 
BRANCH  67  68
ATOM     68  CG  LYS A   2       8.642   3.214  25.004  0.00  0.00    +0.007 C 
BRANCH  68  69
ATOM     69  CD  LYS A   2       8.315   4.696  24.817  0.00  0.00    +0.051 C 
BRANCH  69  70
ATOM     70  CE  LYS A   2       9.482   5.391  24.121  0.00  0.00    +0.127 C 
BRANCH  70  71
ATOM     71  NZ  LYS A   2      10.313   4.396  23.410  0.00  0.00    +0.219 N 
ATOM     72  HZ1 LYS A   2      11.292   4.694  23.321  0.00  0.00    +0.199 HD
ATOM     73  HZ2 LYS A   2       9.931   4.255  22.462  0.00  0.00    +0.199 HD
ATOM     74  HZ3 LYS A   2      10.289   3.481  23.873  0.00  0.00    +0.199 HD
ENDBRANCH  70  71
ENDBRANCH  69  70
ENDBRANCH  68  69
ENDBRANCH  67  68
ENDBRANCH  55  67
ENDBRANCH  51  55
ENDBRANCH  50  52
BRANCH  50  75
ATOM     75  CB  LEU A   3       6.299   1.568  20.005  0.00  0.00    +0.034 C 
BRANCH  75  76
ATOM     76  CG  LEU A   3       5.319   1.123  18.900  0.00  0.00    -0.015 C 
ATOM     77  CD2 LEU A   3       4.008   1.903  19.022  0.00  0.00    +0.007 C 
ATOM     78  CD1 LEU A   3       5.901   1.316  17.498  0.00  0.00    +0.007 C 
ENDBRANCH  75  76
ENDBRANCH  50  75
ENDBRANCH  46  50
ENDBRANCH  45  48
BRANCH  45  79
ATOM     79  CB  GLN A   4       9.516  -2.130  23.339  0.00  0.00    +0.041 C 
BRANCH  79  80
ATOM     80  CG  GLN A   4       9.901  -0.663  23.495  0.00  0.00    +0.098 C 
BRANCH  80  81
ATOM     81  CD  GLN A   4       9.914  -0.304  24.969  0.00  0.00    +0.211 C 
ATOM     82  OE1 GLN A   4       9.167  -0.821  25.799  0.00  0.00    -0.276 OA
ATOM     83  NE2 GLN A   4      10.870   0.600  25.324  0.00  0.00    -0.329 N 
ATOM     84 HE21 GLN A   4      11.449   1.086  24.644  0.00  0.00    +0.145 HD
ATOM     85 HE22 GLN A   4      10.940   0.903  26.286  0.00  0.00    +0.145 HD
ENDBRANCH  80  81
ENDBRANCH  79  80
ENDBRANCH  45  79
ENDBRANCH   1  45
TORSDOF 37
ENDMDL
MODEL 13
REMARK VINA RESULT:      -5.2      2.180      5.008
REMARK  Name = VKLQNNEL-mmff94.pdb
REMARK  43 active torsions:
REMARK  status: ('A' for Active; 'I' for Inactive)
REMARK    1  A    between atoms: _1  and  _2
REMARK    2  A    between atoms: _2  and  _3
REMARK    3  A    between atoms: _2  and  _5
REMARK    4  A    between atoms: _5  and  _6
REMARK    5  A    between atoms: _5  and  _7
REMARK    6  A    between atoms: _17  and  _18
REMARK    7  A    between atoms: _18  and  _19
REMARK    8  A    between atoms: _18  and  _21
REMARK    9  A    between atoms: _21  and  _22
REMARK   10  A    between atoms: _22  and  _23
REMARK   11  A    between atoms: _23  and  _24
REMARK   12  A    between atoms: _24  and  _25
REMARK   13  A    between atoms: _39  and  _40
REMARK   14  A    between atoms: _40  and  _41
REMARK   15  A    between atoms: _40  and  _43
REMARK   16  A    between atoms: _43  and  _44
REMARK   17  A    between atoms: _44  and  _45
REMARK   18  A    between atoms: _44  and  _46
REMARK   19  A    between atoms: _58  and  _59
REMARK   20  A    between atoms: _59  and  _60
REMARK   21  A    between atoms: _59  and  _62
REMARK   22  A    between atoms: _62  and  _63
REMARK   23  A    between atoms: _63  and  _64
REMARK   24  A    between atoms: _75  and  _76
REMARK   25  A    between atoms: _76  and  _77
REMARK   26  A    between atoms: _76  and  _79
REMARK   27  A    between atoms: _79  and  _80
REMARK   28  A    between atoms: _89  and  _90
REMARK   29  A    between atoms: _90  and  _91
REMARK   30  A    between atoms: _90  and  _93
REMARK   31  A    between atoms: _93  and  _94
REMARK   32  A    between atoms: _103  and  _104
REMARK   33  A    between atoms: _104  and  _105
REMARK   34  A    between atoms: _104  and  _107
REMARK   35  A    between atoms: _107  and  _108
REMARK   36  A    between atoms: _108  and  _109
REMARK   37  A    between atoms: _109  and  _110
REMARK   38  A    between atoms: _118  and  _119
REMARK   39  A    between atoms: _119  and  _120
REMARK   40  A    between atoms: _119  and  _122
REMARK   41  A    between atoms: _122  and  _123
REMARK   42  A    between atoms: _123  and  _124
REMARK   43  A    between atoms: _123  and  _125
REMARK                            x       y       z     vdW  Elec       q    Type
REMARK                         _______ _______ _______ _____ _____    ______ ____
ROOT
ATOM      1  C   GLN A   4       6.996   0.518  26.180  0.00  0.00    +0.234 C 
ATOM      2  N   ASN A   5       7.514  -0.644  25.667  0.00  0.00    -0.302 N 
ATOM      3  H   ASN A   5       7.785  -1.411  26.276  0.00  0.00    +0.150 HD
ATOM      4  O   GLN A   4       6.717   1.489  25.476  0.00  0.00    -0.274 OA
ENDROOT
BRANCH   2   5
ATOM      5  CA  ASN A   5       7.880  -0.767  24.257  0.00  0.00    +0.168 C 
BRANCH   5   6
ATOM      6  C   ASN A   5       6.672  -1.385  23.539  0.00  0.00    +0.234 C 
ATOM      7  O   ASN A   5       5.621  -1.639  24.127  0.00  0.00    -0.274 OA
ATOM      8  N   ASN A   6       6.870  -1.684  22.213  0.00  0.00    -0.302 N 
ATOM      9  H   ASN A   6       7.746  -1.461  21.748  0.00  0.00    +0.150 HD
BRANCH   8  10
ATOM     10  CA  ASN A   6       5.808  -2.226  21.366  0.00  0.00    +0.168 C 
BRANCH  10  11
ATOM     11  C   ASN A   6       5.820  -3.752  21.559  0.00  0.00    +0.234 C 
ATOM     12  N   GLU A   7       5.526  -4.184  22.827  0.00  0.00    -0.302 N 
ATOM     13  H   GLU A   7       5.445  -3.526  23.598  0.00  0.00    +0.150 HD
ATOM     14  O   ASN A   6       6.030  -4.521  20.622  0.00  0.00    -0.274 OA
BRANCH  12  15
ATOM     15  CA  GLU A   7       5.441  -5.603  23.188  0.00  0.00    +0.159 C 
BRANCH  15  16
ATOM     16  C   GLU A   7       4.045  -5.783  23.814  0.00  0.00    +0.234 C 
ATOM     17  N   LEU A   8       3.864  -5.170  25.026  0.00  0.00    -0.304 N 
ATOM     18  H   LEU A   8       4.594  -4.577  25.414  0.00  0.00    +0.149 HD
ATOM     19  O   GLU A   7       3.162  -6.416  23.239  0.00  0.00    -0.274 OA
BRANCH  17  20
ATOM     20  CA  LEU A   8       2.578  -5.127  25.718  0.00  0.00    +0.136 C 
BRANCH  20  21
ATOM     21  C   LEU A   8       1.901  -3.824  25.303  0.00  0.00    +0.245 C 
ATOM     22  O   LEU A   8       2.460  -2.729  25.352  0.00  0.00    -0.299 OA
ENDBRANCH  20  21
BRANCH  20  23
ATOM     23  CB  LEU A   8       2.736  -5.146  27.243  0.00  0.00    +0.032 C 
BRANCH  23  24
ATOM     24  CG  LEU A   8       4.155  -4.827  27.756  0.00  0.00    -0.015 C 
ATOM     25  CD2 LEU A   8       4.846  -6.057  28.348  0.00  0.00    +0.007 C 
ATOM     26  CD1 LEU A   8       4.089  -3.722  28.815  0.00  0.00    +0.007 C 
ENDBRANCH  23  24
ENDBRANCH  20  23
ENDBRANCH  17  20
ENDBRANCH  15  16
BRANCH  15  27
ATOM     27  CB  GLU A   7       6.547  -5.988  24.181  0.00  0.00    +0.038 C 
BRANCH  27  28
ATOM     28  CG  GLU A   7       7.482  -4.833  24.538  0.00  0.00    +0.059 C 
BRANCH  28  29
ATOM     29  CD  GLU A   7       7.536  -4.626  26.029  0.00  0.00    +0.023 C 
ATOM     30  OE1 GLU A   7       7.164  -3.605  26.586  0.00  0.00    -0.851 OA
BRANCH  29  31
ATOM     31  OE2 GLU A   7       8.016  -5.690  26.707  0.00  0.00    -0.526 OA
ATOM     32  HE2 GLU A   7       7.884  -6.548  26.265  0.00  0.00    +0.290 HD
ENDBRANCH  29  31
ENDBRANCH  28  29
ENDBRANCH  27  28
ENDBRANCH  15  27
ENDBRANCH  12  15
ENDBRANCH  10  11
BRANCH  10  33
ATOM     33  CB  ASN A   6       6.028  -1.920  19.885  0.00  0.00    +0.127 C 
BRANCH  33  34
ATOM     34  CG  ASN A   6       6.456  -0.495  19.628  0.00  0.00    +0.213 C 
ATOM     35  ND2 ASN A   6       5.462   0.437  19.645  0.00  0.00    -0.329 N 
ATOM     36 HD21 ASN A   6       4.589   0.280  20.131  0.00  0.00    +0.145 HD
ATOM     37 HD22 ASN A   6       5.763   1.401  19.582  0.00  0.00    +0.145 HD
ATOM     38  OD1 ASN A   6       7.617  -0.172  19.388  0.00  0.00    -0.276 OA
ENDBRANCH  33  34
ENDBRANCH  10  33
ENDBRANCH   8  10
ENDBRANCH   5   6
BRANCH   5  39
ATOM     39  CB  ASN A   5       9.088  -1.673  24.030  0.00  0.00    +0.127 C 
BRANCH  39  40
ATOM     40  CG  ASN A   5      10.133  -1.022  23.162  0.00  0.00    +0.213 C 
ATOM     41  OD1 ASN A   5      10.820  -0.079  23.542  0.00  0.00    -0.276 OA
ATOM     42  ND2 ASN A   5      10.273  -1.538  21.910  0.00  0.00    -0.329 N 
ATOM     43 HD21 ASN A   5      10.918  -1.065  21.289  0.00  0.00    +0.145 HD
ATOM     44 HD22 ASN A   5       9.618  -2.184  21.492  0.00  0.00    +0.145 HD
ENDBRANCH  39  40
ENDBRANCH   5  39
ENDBRANCH   2   5
BRANCH   1  45
ATOM     45  CA  GLN A   4       6.749   0.528  27.700  0.00  0.00    +0.159 C 
BRANCH  45  48
ATOM     46  C   LEU A   3       7.034   2.552  29.123  0.00  0.00    +0.234 C 
ATOM     47  O   LEU A   3       7.815   1.983  29.889  0.00  0.00    -0.274 OA
ATOM     48  N   GLN A   4       6.456   1.916  28.051  0.00  0.00    -0.302 N 
ATOM     49  H   GLN A   4       5.797   2.410  27.451  0.00  0.00    +0.150 HD
BRANCH  46  50
ATOM     50  CA  LEU A   3       6.609   4.024  29.317  0.00  0.00    +0.159 C 
BRANCH  50  52
ATOM     51  C   LYS A   2       7.161   5.361  27.291  0.00  0.00    +0.234 C 
ATOM     52  N   LEU A   3       6.305   4.541  27.985  0.00  0.00    -0.302 N 
ATOM     53  H   LEU A   3       5.541   4.085  27.499  0.00  0.00    +0.150 HD
ATOM     54  O   LYS A   2       8.175   5.854  27.780  0.00  0.00    -0.274 OA
BRANCH  51  55
ATOM     55  CA  LYS A   2       6.779   5.579  25.817  0.00  0.00    +0.159 C 
BRANCH  55  58
ATOM     56  C   VAL A   1       8.457   4.694  24.226  0.00  0.00    +0.231 C 
ATOM     57  O   VAL A   1       8.875   5.819  23.955  0.00  0.00    -0.274 OA
ATOM     58  N   LYS A   2       7.389   4.491  25.066  0.00  0.00    -0.303 N 
ATOM     59  H   LYS A   2       7.074   3.547  25.277  0.00  0.00    +0.149 HD
BRANCH  56  60
ATOM     60  CA  VAL A   1       9.084   3.399  23.653  0.00  0.00    +0.140 C 
BRANCH  60  61
ATOM     61  N   VAL A   1       9.440   2.522  24.789  0.00  0.00    -0.320 NA
ATOM     62  H1  VAL A   1       9.868   1.676  24.401  0.00  0.00    +0.119 HD
ATOM     63  H2  VAL A   1       8.581   2.191  25.230  0.00  0.00    +0.119 HD
ENDBRANCH  60  61
BRANCH  60  64
ATOM     64  CB  VAL A   1       8.112   2.686  22.681  0.00  0.00    +0.009 C 
ATOM     65  CG2 VAL A   1       7.171   3.671  21.975  0.00  0.00    +0.009 C 
ATOM     66  CG1 VAL A   1       8.870   1.883  21.614  0.00  0.00    +0.009 C 
ENDBRANCH  60  64
ENDBRANCH  56  60
ENDBRANCH  55  58
BRANCH  55  67
ATOM     67  CB  LYS A   2       5.248   5.584  25.647  0.00  0.00    +0.032 C 
BRANCH  67  68
ATOM     68  CG  LYS A   2       4.814   5.205  24.228  0.00  0.00    +0.007 C 
BRANCH  68  69
ATOM     69  CD  LYS A   2       3.985   3.921  24.171  0.00  0.00    +0.051 C 
BRANCH  69  70
ATOM     70  CE  LYS A   2       3.290   3.823  22.815  0.00  0.00    +0.127 C 
BRANCH  70  71
ATOM     71  NZ  LYS A   2       3.703   4.951  21.952  0.00  0.00    +0.219 N 
ATOM     72  HZ1 LYS A   2       3.445   5.863  22.348  0.00  0.00    +0.199 HD
ATOM     73  HZ2 LYS A   2       3.242   4.855  21.033  0.00  0.00    +0.199 HD
ATOM     74  HZ3 LYS A   2       4.713   4.942  21.774  0.00  0.00    +0.199 HD
ENDBRANCH  70  71
ENDBRANCH  69  70
ENDBRANCH  68  69
ENDBRANCH  67  68
ENDBRANCH  55  67
ENDBRANCH  51  55
ENDBRANCH  50  52
BRANCH  50  75
ATOM     75  CB  LEU A   3       5.392   4.130  30.244  0.00  0.00    +0.034 C 
BRANCH  75  76
ATOM     76  CG  LEU A   3       4.176   4.840  29.614  0.00  0.00    -0.015 C 
ATOM     77  CD2 LEU A   3       3.143   3.804  29.165  0.00  0.00    +0.007 C 
ATOM     78  CD1 LEU A   3       3.522   5.831  30.580  0.00  0.00    +0.007 C 
ENDBRANCH  75  76
ENDBRANCH  50  75
ENDBRANCH  46  50
ENDBRANCH  45  48
BRANCH  45  79
ATOM     79  CB  GLN A   4       5.565  -0.378  28.057  0.00  0.00    +0.041 C 
BRANCH  79  80
ATOM     80  CG  GLN A   4       4.301   0.395  28.421  0.00  0.00    +0.098 C 
BRANCH  80  81
ATOM     81  CD  GLN A   4       3.319   0.318  27.268  0.00  0.00    +0.211 C 
ATOM     82  OE1 GLN A   4       3.389   1.031  26.269  0.00  0.00    -0.276 OA
ATOM     83  NE2 GLN A   4       2.374  -0.657  27.393  0.00  0.00    -0.329 N 
ATOM     84 HE21 GLN A   4       2.260  -1.209  28.239  0.00  0.00    +0.145 HD
ATOM     85 HE22 GLN A   4       1.672  -0.769  26.673  0.00  0.00    +0.145 HD
ENDBRANCH  80  81
ENDBRANCH  79  80
ENDBRANCH  45  79
ENDBRANCH   1  45
TORSDOF 37
ENDMDL
MODEL 14
REMARK VINA RESULT:      -5.2      2.255      5.759
REMARK  Name = VKLQNNEL-mmff94.pdb
REMARK  43 active torsions:
REMARK  status: ('A' for Active; 'I' for Inactive)
REMARK    1  A    between atoms: _1  and  _2
REMARK    2  A    between atoms: _2  and  _3
REMARK    3  A    between atoms: _2  and  _5
REMARK    4  A    between atoms: _5  and  _6
REMARK    5  A    between atoms: _5  and  _7
REMARK    6  A    between atoms: _17  and  _18
REMARK    7  A    between atoms: _18  and  _19
REMARK    8  A    between atoms: _18  and  _21
REMARK    9  A    between atoms: _21  and  _22
REMARK   10  A    between atoms: _22  and  _23
REMARK   11  A    between atoms: _23  and  _24
REMARK   12  A    between atoms: _24  and  _25
REMARK   13  A    between atoms: _39  and  _40
REMARK   14  A    between atoms: _40  and  _41
REMARK   15  A    between atoms: _40  and  _43
REMARK   16  A    between atoms: _43  and  _44
REMARK   17  A    between atoms: _44  and  _45
REMARK   18  A    between atoms: _44  and  _46
REMARK   19  A    between atoms: _58  and  _59
REMARK   20  A    between atoms: _59  and  _60
REMARK   21  A    between atoms: _59  and  _62
REMARK   22  A    between atoms: _62  and  _63
REMARK   23  A    between atoms: _63  and  _64
REMARK   24  A    between atoms: _75  and  _76
REMARK   25  A    between atoms: _76  and  _77
REMARK   26  A    between atoms: _76  and  _79
REMARK   27  A    between atoms: _79  and  _80
REMARK   28  A    between atoms: _89  and  _90
REMARK   29  A    between atoms: _90  and  _91
REMARK   30  A    between atoms: _90  and  _93
REMARK   31  A    between atoms: _93  and  _94
REMARK   32  A    between atoms: _103  and  _104
REMARK   33  A    between atoms: _104  and  _105
REMARK   34  A    between atoms: _104  and  _107
REMARK   35  A    between atoms: _107  and  _108
REMARK   36  A    between atoms: _108  and  _109
REMARK   37  A    between atoms: _109  and  _110
REMARK   38  A    between atoms: _118  and  _119
REMARK   39  A    between atoms: _119  and  _120
REMARK   40  A    between atoms: _119  and  _122
REMARK   41  A    between atoms: _122  and  _123
REMARK   42  A    between atoms: _123  and  _124
REMARK   43  A    between atoms: _123  and  _125
REMARK                            x       y       z     vdW  Elec       q    Type
REMARK                         _______ _______ _______ _____ _____    ______ ____
ROOT
ATOM      1  C   GLN A   4       8.307   0.795  21.887  0.00  0.00    +0.234 C 
ATOM      2  N   ASN A   5       8.169   0.933  23.244  0.00  0.00    -0.302 N 
ATOM      3  H   ASN A   5       7.250   0.955  23.678  0.00  0.00    +0.150 HD
ATOM      4  O   GLN A   4       9.402   0.828  21.324  0.00  0.00    -0.274 OA
ENDROOT
BRANCH   2   5
ATOM      5  CA  ASN A   5       9.307   1.247  24.106  0.00  0.00    +0.168 C 
BRANCH   5   6
ATOM      6  C   ASN A   5       9.219   0.306  25.315  0.00  0.00    +0.234 C 
ATOM      7  O   ASN A   5      10.126   0.215  26.143  0.00  0.00    -0.274 OA
ATOM      8  N   ASN A   6       8.083  -0.464  25.375  0.00  0.00    -0.302 N 
ATOM      9  H   ASN A   6       7.344  -0.368  24.682  0.00  0.00    +0.150 HD
BRANCH   8  10
ATOM     10  CA  ASN A   6       7.810  -1.373  26.488  0.00  0.00    +0.168 C 
BRANCH  10  11
ATOM     11  C   ASN A   6       8.280  -2.770  26.047  0.00  0.00    +0.234 C 
ATOM     12  N   GLU A   7       7.459  -3.806  26.412  0.00  0.00    -0.302 N 
ATOM     13  H   GLU A   7       6.677  -3.655  27.044  0.00  0.00    +0.150 HD
ATOM     14  O   ASN A   6       9.296  -2.927  25.371  0.00  0.00    -0.274 OA
BRANCH  12  15
ATOM     15  CA  GLU A   7       7.717  -5.200  26.037  0.00  0.00    +0.159 C 
BRANCH  15  16
ATOM     16  C   GLU A   7       7.263  -5.320  24.571  0.00  0.00    +0.234 C 
ATOM     17  N   LEU A   8       5.907  -5.321  24.375  0.00  0.00    -0.304 N 
ATOM     18  H   LEU A   8       5.277  -5.166  25.160  0.00  0.00    +0.149 HD
ATOM     19  O   GLU A   7       8.077  -5.386  23.652  0.00  0.00    -0.274 OA
BRANCH  17  20
ATOM     20  CA  LEU A   8       5.287  -5.307  23.053  0.00  0.00    +0.136 C 
BRANCH  20  21
ATOM     21  C   LEU A   8       5.160  -3.843  22.644  0.00  0.00    +0.245 C 
ATOM     22  O   LEU A   8       5.533  -3.412  21.552  0.00  0.00    -0.299 OA
ENDBRANCH  20  21
BRANCH  20  23
ATOM     23  CB  LEU A   8       3.895  -5.949  23.055  0.00  0.00    +0.032 C 
BRANCH  23  24
ATOM     24  CG  LEU A   8       2.799  -5.129  23.765  0.00  0.00    -0.015 C 
ATOM     25  CD2 LEU A   8       2.659  -5.506  25.241  0.00  0.00    +0.007 C 
ATOM     26  CD1 LEU A   8       1.455  -5.335  23.059  0.00  0.00    +0.007 C 
ENDBRANCH  23  24
ENDBRANCH  20  23
ENDBRANCH  17  20
ENDBRANCH  15  16
BRANCH  15  27
ATOM     27  CB  GLU A   7       6.937  -6.167  26.939  0.00  0.00    +0.038 C 
BRANCH  27  28
ATOM     28  CG  GLU A   7       6.084  -5.469  27.997  0.00  0.00    +0.059 C 
BRANCH  28  29
ATOM     29  CD  GLU A   7       5.679  -6.432  29.084  0.00  0.00    +0.023 C 
ATOM     30  OE1 GLU A   7       4.579  -6.433  29.614  0.00  0.00    -0.851 OA
BRANCH  29  31
ATOM     31  OE2 GLU A   7       6.644  -7.319  29.407  0.00  0.00    -0.526 OA
ATOM     32  HE2 GLU A   7       7.552  -6.967  29.367  0.00  0.00    +0.290 HD
ENDBRANCH  29  31
ENDBRANCH  28  29
ENDBRANCH  27  28
ENDBRANCH  15  27
ENDBRANCH  12  15
ENDBRANCH  10  11
BRANCH  10  33
ATOM     33  CB  ASN A   6       6.323  -1.446  26.833  0.00  0.00    +0.127 C 
BRANCH  33  34
ATOM     34  CG  ASN A   6       5.426  -1.364  25.621  0.00  0.00    +0.213 C 
ATOM     35  ND2 ASN A   6       4.442  -2.305  25.545  0.00  0.00    -0.329 N 
ATOM     36 HD21 ASN A   6       4.097  -2.785  26.365  0.00  0.00    +0.145 HD
ATOM     37 HD22 ASN A   6       3.776  -2.184  24.793  0.00  0.00    +0.145 HD
ATOM     38  OD1 ASN A   6       5.568  -0.531  24.731  0.00  0.00    -0.276 OA
ENDBRANCH  33  34
ENDBRANCH  10  33
ENDBRANCH   8  10
ENDBRANCH   5   6
BRANCH   5  39
ATOM     39  CB  ASN A   5       9.290   2.686  24.617  0.00  0.00    +0.127 C 
BRANCH  39  40
ATOM     40  CG  ASN A   5      10.003   3.630  23.685  0.00  0.00    +0.213 C 
ATOM     41  OD1 ASN A   5      11.208   3.561  23.462  0.00  0.00    -0.276 OA
ATOM     42  ND2 ASN A   5       9.231   4.585  23.098  0.00  0.00    -0.329 N 
ATOM     43 HD21 ASN A   5       9.708   5.272  22.528  0.00  0.00    +0.145 HD
ATOM     44 HD22 ASN A   5       8.286   4.796  23.383  0.00  0.00    +0.145 HD
ENDBRANCH  39  40
ENDBRANCH   5  39
ENDBRANCH   2   5
BRANCH   1  45
ATOM     45  CA  GLN A   4       7.005   0.559  21.100  0.00  0.00    +0.159 C 
BRANCH  45  48
ATOM     46  C   LEU A   3       6.022   2.639  22.052  0.00  0.00    +0.234 C 
ATOM     47  O   LEU A   3       6.983   3.330  21.704  0.00  0.00    -0.274 OA
ATOM     48  N   GLN A   4       5.962   1.287  21.818  0.00  0.00    -0.302 N 
ATOM     49  H   GLN A   4       5.163   0.743  22.139  0.00  0.00    +0.150 HD
BRANCH  46  50
ATOM     50  CA  LEU A   3       4.812   3.227  22.812  0.00  0.00    +0.159 C 
BRANCH  50  52
ATOM     51  C   LYS A   2       4.168   2.831  25.184  0.00  0.00    +0.234 C 
ATOM     52  N   LEU A   3       5.123   3.100  24.234  0.00  0.00    -0.302 N 
ATOM     53  H   LEU A   3       6.105   2.992  24.462  0.00  0.00    +0.150 HD
ATOM     54  O   LYS A   2       2.961   2.823  24.950  0.00  0.00    -0.274 OA
BRANCH  51  55
ATOM     55  CA  LYS A   2       4.731   2.479  26.572  0.00  0.00    +0.159 C 
BRANCH  55  58
ATOM     56  C   VAL A   1       3.258   1.152  28.053  0.00  0.00    +0.231 C 
ATOM     57  O   VAL A   1       3.092   2.094  28.826  0.00  0.00    -0.274 OA
ATOM     58  N   LYS A   2       4.100   1.229  26.970  0.00  0.00    -0.303 N 
ATOM     59  H   LYS A   2       4.208   0.435  26.345  0.00  0.00    +0.149 HD
BRANCH  56  60
ATOM     60  CA  VAL A   1       2.542  -0.212  28.218  0.00  0.00    +0.140 C 
BRANCH  60  61
ATOM     61  N   VAL A   1       2.118  -0.672  26.878  0.00  0.00    -0.320 NA
ATOM     62  H1  VAL A   1       1.413  -0.014  26.536  0.00  0.00    +0.119 HD
ATOM     63  H2  VAL A   1       1.615  -1.554  26.977  0.00  0.00    +0.119 HD
ENDBRANCH  60  61
BRANCH  60  64
ATOM     64  CB  VAL A   1       3.465  -1.253  28.899  0.00  0.00    +0.009 C 
ATOM     65  CG2 VAL A   1       3.722  -0.923  30.375  0.00  0.00    +0.009 C 
ATOM     66  CG1 VAL A   1       2.880  -2.670  28.809  0.00  0.00    +0.009 C 
ENDBRANCH  60  64
ENDBRANCH  56  60
ENDBRANCH  55  58
BRANCH  55  67
ATOM     67  CB  LYS A   2       6.264   2.337  26.516  0.00  0.00    +0.032 C 
BRANCH  67  68
ATOM     68  CG  LYS A   2       6.937   2.713  27.839  0.00  0.00    +0.007 C 
BRANCH  68  69
ATOM     69  CD  LYS A   2       7.116   1.527  28.787  0.00  0.00    +0.051 C 
BRANCH  69  70
ATOM     70  CE  LYS A   2       6.364   1.796  30.088  0.00  0.00    +0.127 C 
BRANCH  70  71
ATOM     71  NZ  LYS A   2       5.724   3.128  30.036  0.00  0.00    +0.219 N 
ATOM     72  HZ1 LYS A   2       5.837   3.583  29.122  0.00  0.00    +0.199 HD
ATOM     73  HZ2 LYS A   2       6.152   3.734  30.754  0.00  0.00    +0.199 HD
ATOM     74  HZ3 LYS A   2       4.723   3.077  30.257  0.00  0.00    +0.199 HD
ENDBRANCH  70  71
ENDBRANCH  69  70
ENDBRANCH  68  69
ENDBRANCH  67  68
ENDBRANCH  55  67
ENDBRANCH  51  55
ENDBRANCH  50  52
BRANCH  50  75
ATOM     75  CB  LEU A   3       4.574   4.690  22.424  0.00  0.00    +0.034 C 
BRANCH  75  76
ATOM     76  CG  LEU A   3       3.131   5.000  21.974  0.00  0.00    -0.015 C 
ATOM     77  CD2 LEU A   3       2.418   3.702  21.587  0.00  0.00    +0.007 C 
ATOM     78  CD1 LEU A   3       2.329   5.721  23.059  0.00  0.00    +0.007 C 
ENDBRANCH  75  76
ENDBRANCH  50  75
ENDBRANCH  46  50
ENDBRANCH  45  48
BRANCH  45  79
ATOM     79  CB  GLN A   4       7.141   1.090  19.667  0.00  0.00    +0.041 C 
BRANCH  79  80
ATOM     80  CG  GLN A   4       7.449  -0.001  18.647  0.00  0.00    +0.098 C 
BRANCH  80  81
ATOM     81  CD  GLN A   4       6.150  -0.639  18.191  0.00  0.00    +0.211 C 
ATOM     82  OE1 GLN A   4       5.955  -1.854  18.192  0.00  0.00    -0.276 OA
ATOM     83  NE2 GLN A   4       5.178   0.247  17.833  0.00  0.00    -0.329 N 
ATOM     84 HE21 GLN A   4       5.344   1.248  17.761  0.00  0.00    +0.145 HD
ATOM     85 HE22 GLN A   4       4.285  -0.095  17.504  0.00  0.00    +0.145 HD
ENDBRANCH  80  81
ENDBRANCH  79  80
ENDBRANCH  45  79
ENDBRANCH   1  45
TORSDOF 37
ENDMDL
MODEL 15
REMARK VINA RESULT:      -5.2      1.843      7.941
REMARK  Name = VKLQNNEL-mmff94.pdb
REMARK  43 active torsions:
REMARK  status: ('A' for Active; 'I' for Inactive)
REMARK    1  A    between atoms: _1  and  _2
REMARK    2  A    between atoms: _2  and  _3
REMARK    3  A    between atoms: _2  and  _5
REMARK    4  A    between atoms: _5  and  _6
REMARK    5  A    between atoms: _5  and  _7
REMARK    6  A    between atoms: _17  and  _18
REMARK    7  A    between atoms: _18  and  _19
REMARK    8  A    between atoms: _18  and  _21
REMARK    9  A    between atoms: _21  and  _22
REMARK   10  A    between atoms: _22  and  _23
REMARK   11  A    between atoms: _23  and  _24
REMARK   12  A    between atoms: _24  and  _25
REMARK   13  A    between atoms: _39  and  _40
REMARK   14  A    between atoms: _40  and  _41
REMARK   15  A    between atoms: _40  and  _43
REMARK   16  A    between atoms: _43  and  _44
REMARK   17  A    between atoms: _44  and  _45
REMARK   18  A    between atoms: _44  and  _46
REMARK   19  A    between atoms: _58  and  _59
REMARK   20  A    between atoms: _59  and  _60
REMARK   21  A    between atoms: _59  and  _62
REMARK   22  A    between atoms: _62  and  _63
REMARK   23  A    between atoms: _63  and  _64
REMARK   24  A    between atoms: _75  and  _76
REMARK   25  A    between atoms: _76  and  _77
REMARK   26  A    between atoms: _76  and  _79
REMARK   27  A    between atoms: _79  and  _80
REMARK   28  A    between atoms: _89  and  _90
REMARK   29  A    between atoms: _90  and  _91
REMARK   30  A    between atoms: _90  and  _93
REMARK   31  A    between atoms: _93  and  _94
REMARK   32  A    between atoms: _103  and  _104
REMARK   33  A    between atoms: _104  and  _105
REMARK   34  A    between atoms: _104  and  _107
REMARK   35  A    between atoms: _107  and  _108
REMARK   36  A    between atoms: _108  and  _109
REMARK   37  A    between atoms: _109  and  _110
REMARK   38  A    between atoms: _118  and  _119
REMARK   39  A    between atoms: _119  and  _120
REMARK   40  A    between atoms: _119  and  _122
REMARK   41  A    between atoms: _122  and  _123
REMARK   42  A    between atoms: _123  and  _124
REMARK   43  A    between atoms: _123  and  _125
REMARK                            x       y       z     vdW  Elec       q    Type
REMARK                         _______ _______ _______ _____ _____    ______ ____
ROOT
ATOM      1  C   GLN A   4       7.665  -0.020  27.067  0.00  0.00    +0.234 C 
ATOM      2  N   ASN A   5       8.070  -0.015  25.757  0.00  0.00    -0.302 N 
ATOM      3  H   ASN A   5       7.394   0.028  24.999  0.00  0.00    +0.150 HD
ATOM      4  O   GLN A   4       8.454  -0.135  28.006  0.00  0.00    -0.274 OA
ENDROOT
BRANCH   2   5
ATOM      5  CA  ASN A   5       9.461  -0.265  25.380  0.00  0.00    +0.168 C 
BRANCH   5   6
ATOM      6  C   ASN A   5       9.981   1.025  24.731  0.00  0.00    +0.234 C 
ATOM      7  O   ASN A   5      11.168   1.182  24.442  0.00  0.00    -0.274 OA
ATOM      8  N   ASN A   6       9.039   2.009  24.550  0.00  0.00    -0.302 N 
ATOM      9  H   ASN A   6       8.063   1.855  24.792  0.00  0.00    +0.150 HD
BRANCH   8  10
ATOM     10  CA  ASN A   6       9.350   3.279  23.894  0.00  0.00    +0.168 C 
BRANCH  10  11
ATOM     11  C   ASN A   6       8.244   3.525  22.854  0.00  0.00    +0.234 C 
ATOM     12  N   GLU A   7       7.570   2.404  22.440  0.00  0.00    -0.302 N 
ATOM     13  H   GLU A   7       7.885   1.476  22.710  0.00  0.00    +0.150 HD
ATOM     14  O   ASN A   6       7.961   4.657  22.466  0.00  0.00    -0.274 OA
BRANCH  12  15
ATOM     15  CA  GLU A   7       6.452   2.448  21.493  0.00  0.00    +0.159 C 
BRANCH  15  16
ATOM     16  C   GLU A   7       5.243   2.945  22.308  0.00  0.00    +0.234 C 
ATOM     17  N   LEU A   8       5.472   3.122  23.647  0.00  0.00    -0.304 N 
ATOM     18  H   LEU A   8       6.410   3.003  24.025  0.00  0.00    +0.149 HD
ATOM     19  O   GLU A   7       4.163   3.185  21.770  0.00  0.00    -0.274 OA
BRANCH  17  20
ATOM     20  CA  LEU A   8       4.488   3.698  24.560  0.00  0.00    +0.136 C 
BRANCH  20  21
ATOM     21  C   LEU A   8       5.233   4.712  25.423  0.00  0.00    +0.245 C 
ATOM     22  O   LEU A   8       6.446   4.663  25.627  0.00  0.00    -0.299 OA
ENDBRANCH  20  21
BRANCH  20  23
ATOM     23  CB  LEU A   8       3.848   2.641  25.469  0.00  0.00    +0.032 C 
BRANCH  23  24
ATOM     24  CG  LEU A   8       2.336   2.819  25.711  0.00  0.00    -0.015 C 
ATOM     25  CD2 LEU A   8       1.666   3.643  24.610  0.00  0.00    +0.007 C 
ATOM     26  CD1 LEU A   8       2.103   3.497  27.065  0.00  0.00    +0.007 C 
ENDBRANCH  23  24
ENDBRANCH  20  23
ENDBRANCH  17  20
ENDBRANCH  15  16
BRANCH  15  27
ATOM     27  CB  GLU A   7       6.182   1.061  20.892  0.00  0.00    +0.038 C 
BRANCH  27  28
ATOM     28  CG  GLU A   7       6.685   0.903  19.458  0.00  0.00    +0.059 C 
BRANCH  28  29
ATOM     29  CD  GLU A   7       5.972  -0.225  18.758  0.00  0.00    +0.023 C 
ATOM     30  OE1 GLU A   7       5.912  -0.339  17.544  0.00  0.00    -0.851 OA
BRANCH  29  31
ATOM     31  OE2 GLU A   7       5.419  -1.121  19.602  0.00  0.00    -0.526 OA
ATOM     32  HE2 GLU A   7       5.953  -1.321  20.392  0.00  0.00    +0.290 HD
ENDBRANCH  29  31
ENDBRANCH  28  29
ENDBRANCH  27  28
ENDBRANCH  15  27
ENDBRANCH  12  15
ENDBRANCH  10  11
BRANCH  10  33
ATOM     33  CB  ASN A   6      10.698   3.250  23.174  0.00  0.00    +0.127 C 
BRANCH  33  34
ATOM     34  CG  ASN A   6      11.489   4.526  23.341  0.00  0.00    +0.213 C 
ATOM     35  ND2 ASN A   6      10.767   5.682  23.312  0.00  0.00    -0.329 N 
ATOM     36 HD21 ASN A   6       9.778   5.701  23.523  0.00  0.00    +0.145 HD
ATOM     37 HD22 ASN A   6      11.280   6.526  23.532  0.00  0.00    +0.145 HD
ATOM     38  OD1 ASN A   6      12.710   4.551  23.470  0.00  0.00    -0.276 OA
ENDBRANCH  33  34
ENDBRANCH  10  33
ENDBRANCH   8  10
ENDBRANCH   5   6
BRANCH   5  39
ATOM     39  CB  ASN A   5       9.612  -1.402  24.372  0.00  0.00    +0.127 C 
BRANCH  39  40
ATOM     40  CG  ASN A   5       8.778  -1.183  23.138  0.00  0.00    +0.213 C 
ATOM     41  OD1 ASN A   5       7.703  -0.589  23.158  0.00  0.00    -0.276 OA
ATOM     42  ND2 ASN A   5       9.282  -1.691  21.980  0.00  0.00    -0.329 N 
ATOM     43 HD21 ASN A   5       8.699  -1.617  21.156  0.00  0.00    +0.145 HD
ATOM     44 HD22 ASN A   5      10.059  -2.334  21.941  0.00  0.00    +0.145 HD
ENDBRANCH  39  40
ENDBRANCH   5  39
ENDBRANCH   2   5
BRANCH   1  45
ATOM     45  CA  GLN A   4       6.155   0.162  27.303  0.00  0.00    +0.159 C 
BRANCH  45  48
ATOM     46  C   LEU A   3       4.339  -1.516  27.007  0.00  0.00    +0.234 C 
ATOM     47  O   LEU A   3       3.567  -0.690  26.514  0.00  0.00    -0.274 OA
ATOM     48  N   GLN A   4       5.601  -1.184  27.435  0.00  0.00    -0.302 N 
ATOM     49  H   GLN A   4       6.205  -1.887  27.859  0.00  0.00    +0.150 HD
BRANCH  46  50
ATOM     50  CA  LEU A   3       3.945  -2.994  27.218  0.00  0.00    +0.159 C 
BRANCH  50  52
ATOM     51  C   LYS A   2       4.060  -3.829  24.875  0.00  0.00    +0.234 C 
ATOM     52  N   LEU A   3       4.586  -3.746  26.141  0.00  0.00    -0.302 N 
ATOM     53  H   LEU A   3       5.550  -4.013  26.304  0.00  0.00    +0.150 HD
ATOM     54  O   LYS A   2       2.942  -3.414  24.576  0.00  0.00    -0.274 OA
BRANCH  51  55
ATOM     55  CA  LYS A   2       5.009  -4.440  23.830  0.00  0.00    +0.159 C 
BRANCH  55  58
ATOM     56  C   VAL A   1       7.377  -4.975  24.315  0.00  0.00    +0.231 C 
ATOM     57  O   VAL A   1       7.780  -4.312  23.360  0.00  0.00    -0.274 OA
ATOM     58  N   LYS A   2       6.039  -5.152  24.573  0.00  0.00    -0.303 N 
ATOM     59  H   LYS A   2       5.739  -5.698  25.377  0.00  0.00    +0.149 HD
BRANCH  56  60
ATOM     60  CA  VAL A   1       8.327  -5.674  25.318  0.00  0.00    +0.140 C 
BRANCH  60  61
ATOM     61  N   VAL A   1       9.699  -5.608  24.772  0.00  0.00    -0.320 NA
ATOM     62  H1  VAL A   1       9.638  -5.788  23.766  0.00  0.00    +0.119 HD
ATOM     63  H2  VAL A   1      10.237  -6.395  25.137  0.00  0.00    +0.119 HD
ENDBRANCH  60  61
BRANCH  60  64
ATOM     64  CB  VAL A   1       8.253  -5.012  26.717  0.00  0.00    +0.009 C 
ATOM     65  CG2 VAL A   1       8.020  -3.498  26.631  0.00  0.00    +0.009 C 
ATOM     66  CG1 VAL A   1       7.140  -5.629  27.576  0.00  0.00    +0.009 C 
ENDBRANCH  60  64
ENDBRANCH  56  60
ENDBRANCH  55  58
BRANCH  55  67
ATOM     67  CB  LYS A   2       4.243  -5.390  22.890  0.00  0.00    +0.032 C 
BRANCH  67  68
ATOM     68  CG  LYS A   2       2.972  -5.953  23.533  0.00  0.00    +0.007 C 
BRANCH  68  69
ATOM     69  CD  LYS A   2       3.172  -7.332  24.163  0.00  0.00    +0.051 C 
BRANCH  69  70
ATOM     70  CE  LYS A   2       2.816  -7.270  25.646  0.00  0.00    +0.127 C 
BRANCH  70  71
ATOM     71  NZ  LYS A   2       4.048  -7.300  26.464  0.00  0.00    +0.219 N 
ATOM     72  HZ1 LYS A   2       4.437  -6.362  26.623  0.00  0.00    +0.199 HD
ATOM     73  HZ2 LYS A   2       4.761  -7.867  25.977  0.00  0.00    +0.199 HD
ATOM     74  HZ3 LYS A   2       3.889  -7.749  27.373  0.00  0.00    +0.199 HD
ENDBRANCH  70  71
ENDBRANCH  69  70
ENDBRANCH  68  69
ENDBRANCH  67  68
ENDBRANCH  55  67
ENDBRANCH  51  55
ENDBRANCH  50  52
BRANCH  50  75
ATOM     75  CB  LEU A   3       4.401  -3.496  28.593  0.00  0.00    +0.034 C 
BRANCH  75  76
ATOM     76  CG  LEU A   3       3.332  -4.301  29.360  0.00  0.00    -0.015 C 
ATOM     77  CD2 LEU A   3       2.041  -4.365  28.540  0.00  0.00    +0.007 C 
ATOM     78  CD1 LEU A   3       3.801  -5.720  29.689  0.00  0.00    +0.007 C 
ENDBRANCH  75  76
ENDBRANCH  50  75
ENDBRANCH  46  50
ENDBRANCH  45  48
BRANCH  45  79
ATOM     79  CB  GLN A   4       5.906   0.973  28.581  0.00  0.00    +0.041 C 
BRANCH  79  80
ATOM     80  CG  GLN A   4       5.917   2.481  28.351  0.00  0.00    +0.098 C 
BRANCH  80  81
ATOM     81  CD  GLN A   4       7.082   3.093  29.104  0.00  0.00    +0.211 C 
ATOM     82  OE1 GLN A   4       7.359   4.291  29.067  0.00  0.00    -0.276 OA
ATOM     83  NE2 GLN A   4       7.774   2.217  29.887  0.00  0.00    -0.329 N 
ATOM     84 HE21 GLN A   4       7.602   1.216  29.878  0.00  0.00    +0.145 HD
ATOM     85 HE22 GLN A   4       8.574   2.541  30.415  0.00  0.00    +0.145 HD
ENDBRANCH  80  81
ENDBRANCH  79  80
ENDBRANCH  45  79
ENDBRANCH   1  45
TORSDOF 37
ENDMDL
MODEL 16
REMARK VINA RESULT:      -5.2      2.273      6.368
REMARK  Name = VKLQNNEL-mmff94.pdb
REMARK  43 active torsions:
REMARK  status: ('A' for Active; 'I' for Inactive)
REMARK    1  A    between atoms: _1  and  _2
REMARK    2  A    between atoms: _2  and  _3
REMARK    3  A    between atoms: _2  and  _5
REMARK    4  A    between atoms: _5  and  _6
REMARK    5  A    between atoms: _5  and  _7
REMARK    6  A    between atoms: _17  and  _18
REMARK    7  A    between atoms: _18  and  _19
REMARK    8  A    between atoms: _18  and  _21
REMARK    9  A    between atoms: _21  and  _22
REMARK   10  A    between atoms: _22  and  _23
REMARK   11  A    between atoms: _23  and  _24
REMARK   12  A    between atoms: _24  and  _25
REMARK   13  A    between atoms: _39  and  _40
REMARK   14  A    between atoms: _40  and  _41
REMARK   15  A    between atoms: _40  and  _43
REMARK   16  A    between atoms: _43  and  _44
REMARK   17  A    between atoms: _44  and  _45
REMARK   18  A    between atoms: _44  and  _46
REMARK   19  A    between atoms: _58  and  _59
REMARK   20  A    between atoms: _59  and  _60
REMARK   21  A    between atoms: _59  and  _62
REMARK   22  A    between atoms: _62  and  _63
REMARK   23  A    between atoms: _63  and  _64
REMARK   24  A    between atoms: _75  and  _76
REMARK   25  A    between atoms: _76  and  _77
REMARK   26  A    between atoms: _76  and  _79
REMARK   27  A    between atoms: _79  and  _80
REMARK   28  A    between atoms: _89  and  _90
REMARK   29  A    between atoms: _90  and  _91
REMARK   30  A    between atoms: _90  and  _93
REMARK   31  A    between atoms: _93  and  _94
REMARK   32  A    between atoms: _103  and  _104
REMARK   33  A    between atoms: _104  and  _105
REMARK   34  A    between atoms: _104  and  _107
REMARK   35  A    between atoms: _107  and  _108
REMARK   36  A    between atoms: _108  and  _109
REMARK   37  A    between atoms: _109  and  _110
REMARK   38  A    between atoms: _118  and  _119
REMARK   39  A    between atoms: _119  and  _120
REMARK   40  A    between atoms: _119  and  _122
REMARK   41  A    between atoms: _122  and  _123
REMARK   42  A    between atoms: _123  and  _124
REMARK   43  A    between atoms: _123  and  _125
REMARK                            x       y       z     vdW  Elec       q    Type
REMARK                         _______ _______ _______ _____ _____    ______ ____
ROOT
ATOM      1  C   GLN A   4       3.818   3.311  23.833  0.00  0.00    +0.234 C 
ATOM      2  N   ASN A   5       5.020   2.804  23.411  0.00  0.00    -0.302 N 
ATOM      3  H   ASN A   5       5.555   2.168  23.995  0.00  0.00    +0.150 HD
ATOM      4  O   GLN A   4       3.175   4.133  23.177  0.00  0.00    -0.274 OA
ENDROOT
BRANCH   2   5
ATOM      5  CA  ASN A   5       5.680   3.294  22.201  0.00  0.00    +0.168 C 
BRANCH   5   6
ATOM      6  C   ASN A   5       5.478   2.221  21.122  0.00  0.00    +0.234 C 
ATOM      7  O   ASN A   5       4.648   2.346  20.221  0.00  0.00    -0.274 OA
ATOM      8  N   ASN A   6       6.248   1.093  21.269  0.00  0.00    -0.302 N 
ATOM      9  H   ASN A   6       6.930   1.015  22.019  0.00  0.00    +0.150 HD
BRANCH   8  10
ATOM     10  CA  ASN A   6       6.223  -0.002  20.300  0.00  0.00    +0.168 C 
BRANCH  10  11
ATOM     11  C   ASN A   6       6.637  -1.276  21.058  0.00  0.00    +0.234 C 
ATOM     12  N   GLU A   7       5.600  -2.032  21.541  0.00  0.00    -0.302 N 
ATOM     13  H   GLU A   7       4.644  -1.688  21.510  0.00  0.00    +0.150 HD
ATOM     14  O   ASN A   6       7.817  -1.606  21.171  0.00  0.00    -0.274 OA
BRANCH  12  15
ATOM     15  CA  GLU A   7       5.798  -3.303  22.244  0.00  0.00    +0.159 C 
BRANCH  15  16
ATOM     16  C   GLU A   7       5.192  -3.096  23.645  0.00  0.00    +0.234 C 
ATOM     17  N   LEU A   8       4.626  -4.209  24.208  0.00  0.00    -0.304 N 
ATOM     18  H   LEU A   8       4.694  -5.110  23.740  0.00  0.00    +0.149 HD
ATOM     19  O   GLU A   7       5.246  -2.006  24.211  0.00  0.00    -0.274 OA
BRANCH  17  20
ATOM     20  CA  LEU A   8       4.107  -4.241  25.573  0.00  0.00    +0.136 C 
BRANCH  20  21
ATOM     21  C   LEU A   8       3.946  -5.712  25.945  0.00  0.00    +0.245 C 
ATOM     22  O   LEU A   8       4.227  -6.162  27.056  0.00  0.00    -0.299 OA
ENDBRANCH  20  21
BRANCH  20  23
ATOM     23  CB  LEU A   8       2.748  -3.541  25.697  0.00  0.00    +0.032 C 
BRANCH  23  24
ATOM     24  CG  LEU A   8       2.473  -2.889  27.067  0.00  0.00    -0.015 C 
ATOM     25  CD2 LEU A   8       3.747  -2.733  27.900  0.00  0.00    +0.007 C 
ATOM     26  CD1 LEU A   8       1.456  -3.728  27.847  0.00  0.00    +0.007 C 
ENDBRANCH  23  24
ENDBRANCH  20  23
ENDBRANCH  17  20
ENDBRANCH  15  16
BRANCH  15  27
ATOM     27  CB  GLU A   7       7.290  -3.658  22.333  0.00  0.00    +0.038 C 
BRANCH  27  28
ATOM     28  CG  GLU A   7       7.591  -5.128  22.047  0.00  0.00    +0.059 C 
BRANCH  28  29
ATOM     29  CD  GLU A   7       6.380  -5.827  21.486  0.00  0.00    +0.023 C 
ATOM     30  OE1 GLU A   7       6.032  -5.748  20.319  0.00  0.00    -0.851 OA
BRANCH  29  31
ATOM     31  OE2 GLU A   7       5.720  -6.576  22.394  0.00  0.00    -0.526 OA
ATOM     32  HE2 GLU A   7       6.227  -6.781  23.200  0.00  0.00    +0.290 HD
ENDBRANCH  29  31
ENDBRANCH  28  29
ENDBRANCH  27  28
ENDBRANCH  15  27
ENDBRANCH  12  15
ENDBRANCH  10  11
BRANCH  10  33
ATOM     33  CB  ASN A   6       7.201   0.216  19.145  0.00  0.00    +0.127 C 
BRANCH  33  34
ATOM     34  CG  ASN A   6       6.534   0.726  17.889  0.00  0.00    +0.213 C 
ATOM     35  ND2 ASN A   6       5.302   0.210  17.619  0.00  0.00    -0.329 N 
ATOM     36 HD21 ASN A   6       4.719  -0.189  18.342  0.00  0.00    +0.145 HD
ATOM     37 HD22 ASN A   6       4.811   0.631  16.840  0.00  0.00    +0.145 HD
ATOM     38  OD1 ASN A   6       7.059   1.533  17.127  0.00  0.00    -0.276 OA
ENDBRANCH  33  34
ENDBRANCH  10  33
ENDBRANCH   8  10
ENDBRANCH   5   6
BRANCH   5  39
ATOM     39  CB  ASN A   5       7.180   3.512  22.386  0.00  0.00    +0.127 C 
BRANCH  39  40
ATOM     40  CG  ASN A   5       7.493   4.878  22.936  0.00  0.00    +0.213 C 
ATOM     41  OD1 ASN A   5       7.149   5.238  24.058  0.00  0.00    -0.276 OA
ATOM     42  ND2 ASN A   5       8.184   5.710  22.109  0.00  0.00    -0.329 N 
ATOM     43 HD21 ASN A   5       8.338   6.655  22.436  0.00  0.00    +0.145 HD
ATOM     44 HD22 ASN A   5       8.331   5.530  21.127  0.00  0.00    +0.145 HD
ENDBRANCH  39  40
ENDBRANCH   5  39
ENDBRANCH   2   5
BRANCH   1  45
ATOM     45  CA  GLN A   4       3.293   2.765  25.173  0.00  0.00    +0.159 C 
BRANCH  45  48
ATOM     46  C   LEU A   3       4.449   1.038  26.545  0.00  0.00    +0.234 C 
ATOM     47  O   LEU A   3       3.440   0.334  26.626  0.00  0.00    -0.274 OA
ATOM     48  N   GLN A   4       4.459   2.240  25.880  0.00  0.00    -0.302 N 
ATOM     49  H   GLN A   4       5.304   2.808  25.852  0.00  0.00    +0.150 HD
BRANCH  46  50
ATOM     50  CA  LEU A   3       5.786   0.650  27.213  0.00  0.00    +0.159 C 
BRANCH  50  52
ATOM     51  C   LYS A   2       7.751  -0.694  26.486  0.00  0.00    +0.234 C 
ATOM     52  N   LEU A   3       6.509  -0.164  26.239  0.00  0.00    -0.302 N 
ATOM     53  H   LEU A   3       5.959  -0.511  25.460  0.00  0.00    +0.150 HD
ATOM     54  O   LYS A   2       8.426  -0.412  27.474  0.00  0.00    -0.274 OA
BRANCH  51  55
ATOM     55  CA  LYS A   2       8.222  -1.726  25.446  0.00  0.00    +0.159 C 
BRANCH  55  58
ATOM     56  C   VAL A   1       8.824  -0.023  23.753  0.00  0.00    +0.231 C 
ATOM     57  O   VAL A   1       7.648   0.290  23.567  0.00  0.00    -0.274 OA
ATOM     58  N   LYS A   2       9.188  -1.045  24.595  0.00  0.00    -0.303 N 
ATOM     59  H   LYS A   2      10.169  -1.272  24.734  0.00  0.00    +0.149 HD
BRANCH  56  60
ATOM     60  CA  VAL A   1      10.008   0.698  23.062  0.00  0.00    +0.140 C 
BRANCH  60  61
ATOM     61  N   VAL A   1       9.582   1.074  21.697  0.00  0.00    -0.320 NA
ATOM     62  H1  VAL A   1       9.105   1.977  21.761  0.00  0.00    +0.119 HD
ATOM     63  H2  VAL A   1       8.857   0.425  21.388  0.00  0.00    +0.119 HD
ENDBRANCH  60  61
BRANCH  60  64
ATOM     64  CB  VAL A   1      10.455   1.943  23.868  0.00  0.00    +0.009 C 
ATOM     65  CG2 VAL A   1      10.894   3.097  22.957  0.00  0.00    +0.009 C 
ATOM     66  CG1 VAL A   1       9.339   2.448  24.793  0.00  0.00    +0.009 C 
ENDBRANCH  60  64
ENDBRANCH  56  60
ENDBRANCH  55  58
BRANCH  55  67
ATOM     67  CB  LYS A   2       8.853  -2.948  26.139  0.00  0.00    +0.032 C 
BRANCH  67  68
ATOM     68  CG  LYS A   2       9.441  -3.950  25.141  0.00  0.00    +0.007 C 
BRANCH  68  69
ATOM     69  CD  LYS A   2       9.011  -5.393  25.407  0.00  0.00    +0.051 C 
BRANCH  69  70
ATOM     70  CE  LYS A   2       7.608  -5.403  26.008  0.00  0.00    +0.127 C 
BRANCH  70  71
ATOM     71  NZ  LYS A   2       7.649  -5.944  27.384  0.00  0.00    +0.219 N 
ATOM     72  HZ1 LYS A   2       8.488  -5.647  27.897  0.00  0.00    +0.199 HD
ATOM     73  HZ2 LYS A   2       7.647  -6.975  27.339  0.00  0.00    +0.199 HD
ATOM     74  HZ3 LYS A   2       6.820  -5.673  27.923  0.00  0.00    +0.199 HD
ENDBRANCH  70  71
ENDBRANCH  69  70
ENDBRANCH  68  69
ENDBRANCH  67  68
ENDBRANCH  55  67
ENDBRANCH  51  55
ENDBRANCH  50  52
BRANCH  50  75
ATOM     75  CB  LEU A   3       6.591   1.895  27.603  0.00  0.00    +0.034 C 
BRANCH  75  76
ATOM     76  CG  LEU A   3       6.389   2.347  29.064  0.00  0.00    -0.015 C 
ATOM     77  CD2 LEU A   3       5.198   1.607  29.679  0.00  0.00    +0.007 C 
ATOM     78  CD1 LEU A   3       7.635   2.112  29.920  0.00  0.00    +0.007 C 
ENDBRANCH  75  76
ENDBRANCH  50  75
ENDBRANCH  46  50
ENDBRANCH  45  48
BRANCH  45  79
ATOM     79  CB  GLN A   4       2.631   3.885  25.986  0.00  0.00    +0.041 C 
BRANCH  79  80
ATOM     80  CG  GLN A   4       3.578   4.549  26.981  0.00  0.00    +0.098 C 
BRANCH  80  81
ATOM     81  CD  GLN A   4       3.071   4.307  28.390  0.00  0.00    +0.211 C 
ATOM     82  OE1 GLN A   4       3.556   4.843  29.386  0.00  0.00    -0.276 OA
ATOM     83  NE2 GLN A   4       1.983   3.490  28.469  0.00  0.00    -0.329 N 
ATOM     84 HE21 GLN A   4       1.612   2.987  27.667  0.00  0.00    +0.145 HD
ATOM     85 HE22 GLN A   4       1.589   3.267  29.373  0.00  0.00    +0.145 HD
ENDBRANCH  80  81
ENDBRANCH  79  80
ENDBRANCH  45  79
ENDBRANCH   1  45
TORSDOF 37
ENDMDL
MODEL 17
REMARK VINA RESULT:      -5.2      2.417      9.104
REMARK  Name = VKLQNNEL-mmff94.pdb
REMARK  43 active torsions:
REMARK  status: ('A' for Active; 'I' for Inactive)
REMARK    1  A    between atoms: _1  and  _2
REMARK    2  A    between atoms: _2  and  _3
REMARK    3  A    between atoms: _2  and  _5
REMARK    4  A    between atoms: _5  and  _6
REMARK    5  A    between atoms: _5  and  _7
REMARK    6  A    between atoms: _17  and  _18
REMARK    7  A    between atoms: _18  and  _19
REMARK    8  A    between atoms: _18  and  _21
REMARK    9  A    between atoms: _21  and  _22
REMARK   10  A    between atoms: _22  and  _23
REMARK   11  A    between atoms: _23  and  _24
REMARK   12  A    between atoms: _24  and  _25
REMARK   13  A    between atoms: _39  and  _40
REMARK   14  A    between atoms: _40  and  _41
REMARK   15  A    between atoms: _40  and  _43
REMARK   16  A    between atoms: _43  and  _44
REMARK   17  A    between atoms: _44  and  _45
REMARK   18  A    between atoms: _44  and  _46
REMARK   19  A    between atoms: _58  and  _59
REMARK   20  A    between atoms: _59  and  _60
REMARK   21  A    between atoms: _59  and  _62
REMARK   22  A    between atoms: _62  and  _63
REMARK   23  A    between atoms: _63  and  _64
REMARK   24  A    between atoms: _75  and  _76
REMARK   25  A    between atoms: _76  and  _77
REMARK   26  A    between atoms: _76  and  _79
REMARK   27  A    between atoms: _79  and  _80
REMARK   28  A    between atoms: _89  and  _90
REMARK   29  A    between atoms: _90  and  _91
REMARK   30  A    between atoms: _90  and  _93
REMARK   31  A    between atoms: _93  and  _94
REMARK   32  A    between atoms: _103  and  _104
REMARK   33  A    between atoms: _104  and  _105
REMARK   34  A    between atoms: _104  and  _107
REMARK   35  A    between atoms: _107  and  _108
REMARK   36  A    between atoms: _108  and  _109
REMARK   37  A    between atoms: _109  and  _110
REMARK   38  A    between atoms: _118  and  _119
REMARK   39  A    between atoms: _119  and  _120
REMARK   40  A    between atoms: _119  and  _122
REMARK   41  A    between atoms: _122  and  _123
REMARK   42  A    between atoms: _123  and  _124
REMARK   43  A    between atoms: _123  and  _125
REMARK                            x       y       z     vdW  Elec       q    Type
REMARK                         _______ _______ _______ _____ _____    ______ ____
ROOT
ATOM      1  C   GLN A   4       8.015  -0.559  21.715  0.00  0.00    +0.234 C 
ATOM      2  N   ASN A   5       6.934   0.283  21.772  0.00  0.00    -0.302 N 
ATOM      3  H   ASN A   5       6.208   0.159  22.472  0.00  0.00    +0.150 HD
ATOM      4  O   GLN A   4       8.878  -0.475  20.840  0.00  0.00    -0.274 OA
ENDROOT
BRANCH   2   5
ATOM      5  CA  ASN A   5       6.670   1.268  20.724  0.00  0.00    +0.168 C 
BRANCH   5   6
ATOM      6  C   ASN A   5       6.089   2.507  21.419  0.00  0.00    +0.234 C 
ATOM      7  O   ASN A   5       6.806   3.401  21.872  0.00  0.00    -0.274 OA
ATOM      8  N   ASN A   6       4.722   2.518  21.548  0.00  0.00    -0.302 N 
ATOM      9  H   ASN A   6       4.150   1.771  21.161  0.00  0.00    +0.150 HD
BRANCH   8  10
ATOM     10  CA  ASN A   6       4.000   3.647  22.134  0.00  0.00    +0.168 C 
BRANCH  10  11
ATOM     11  C   ASN A   6       4.154   3.529  23.661  0.00  0.00    +0.234 C 
ATOM     12  N   GLU A   7       4.730   4.611  24.276  0.00  0.00    -0.302 N 
ATOM     13  H   GLU A   7       5.142   5.364  23.731  0.00  0.00    +0.150 HD
ATOM     14  O   ASN A   6       3.739   2.549  24.278  0.00  0.00    -0.274 OA
BRANCH  12  15
ATOM     15  CA  GLU A   7       4.912   4.700  25.728  0.00  0.00    +0.159 C 
BRANCH  15  16
ATOM     16  C   GLU A   7       6.363   4.254  25.988  0.00  0.00    +0.234 C 
ATOM     17  N   LEU A   8       7.112   4.015  24.866  0.00  0.00    -0.304 N 
ATOM     18  H   LEU A   8       6.728   4.209  23.943  0.00  0.00    +0.149 HD
ATOM     19  O   GLU A   7       6.807   4.150  27.130  0.00  0.00    -0.274 OA
BRANCH  17  20
ATOM     20  CA  LEU A   8       8.537   3.700  24.905  0.00  0.00    +0.136 C 
BRANCH  20  21
ATOM     21  C   LEU A   8       9.236   4.722  24.012  0.00  0.00    +0.245 C 
ATOM     22  O   LEU A   8      10.197   5.395  24.383  0.00  0.00    -0.299 OA
ENDBRANCH  20  21
BRANCH  20  23
ATOM     23  CB  LEU A   8       8.838   2.290  24.382  0.00  0.00    +0.032 C 
BRANCH  23  24
ATOM     24  CG  LEU A   8      10.285   2.067  23.900  0.00  0.00    -0.015 C 
ATOM     25  CD2 LEU A   8      10.400   2.112  22.375  0.00  0.00    +0.007 C 
ATOM     26  CD1 LEU A   8      10.800   0.717  24.408  0.00  0.00    +0.007 C 
ENDBRANCH  23  24
ENDBRANCH  20  23
ENDBRANCH  17  20
ENDBRANCH  15  16
BRANCH  15  27
ATOM     27  CB  GLU A   7       3.915   3.795  26.466  0.00  0.00    +0.038 C 
BRANCH  27  28
ATOM     28  CG  GLU A   7       3.047   4.536  27.482  0.00  0.00    +0.059 C 
BRANCH  28  29
ATOM     29  CD  GLU A   7       3.407   4.139  28.890  0.00  0.00    +0.023 C 
ATOM     30  OE1 GLU A   7       2.609   3.676  29.690  0.00  0.00    -0.851 OA
BRANCH  29  31
ATOM     31  OE2 GLU A   7       4.712   4.320  29.186  0.00  0.00    -0.526 OA
ATOM     32  HE2 GLU A   7       5.161   3.533  29.545  0.00  0.00    +0.290 HD
ENDBRANCH  29  31
ENDBRANCH  28  29
ENDBRANCH  27  28
ENDBRANCH  15  27
ENDBRANCH  12  15
ENDBRANCH  10  11
BRANCH  10  33
ATOM     33  CB  ASN A   6       2.510   3.630  21.793  0.00  0.00    +0.127 C 
BRANCH  33  34
ATOM     34  CG  ASN A   6       2.230   3.208  20.370  0.00  0.00    +0.213 C 
ATOM     35  ND2 ASN A   6       2.234   4.207  19.442  0.00  0.00    -0.329 N 
ATOM     36 HD21 ASN A   6       2.724   5.078  19.595  0.00  0.00    +0.145 HD
ATOM     37 HD22 ASN A   6       2.155   3.910  18.477  0.00  0.00    +0.145 HD
ATOM     38  OD1 ASN A   6       1.984   2.050  20.046  0.00  0.00    -0.276 OA
ENDBRANCH  33  34
ENDBRANCH  10  33
ENDBRANCH   8  10
ENDBRANCH   5   6
BRANCH   5  39
ATOM     39  CB  ASN A   5       5.659   0.783  19.688  0.00  0.00    +0.127 C 
BRANCH  39  40
ATOM     40  CG  ASN A   5       6.326   0.174  18.483  0.00  0.00    +0.213 C 
ATOM     41  OD1 ASN A   5       7.449   0.500  18.108  0.00  0.00    -0.276 OA
ATOM     42  ND2 ASN A   5       5.605  -0.768  17.815  0.00  0.00    -0.329 N 
ATOM     43 HD21 ASN A   5       6.009  -1.133  16.961  0.00  0.00    +0.145 HD
ATOM     44 HD22 ASN A   5       4.623  -0.939  17.972  0.00  0.00    +0.145 HD
ENDBRANCH  39  40
ENDBRANCH   5  39
ENDBRANCH   2   5
BRANCH   1  45
ATOM     45  CA  GLN A   4       8.108  -1.608  22.839  0.00  0.00    +0.159 C 
BRANCH  45  48
ATOM     46  C   LEU A   3       6.968  -1.191  25.013  0.00  0.00    +0.234 C 
ATOM     47  O   LEU A   3       8.031  -1.155  25.638  0.00  0.00    -0.274 OA
ATOM     48  N   GLN A   4       6.914  -1.426  23.661  0.00  0.00    -0.302 N 
ATOM     49  H   GLN A   4       6.017  -1.471  23.180  0.00  0.00    +0.150 HD
BRANCH  46  50
ATOM     50  CA  LEU A   3       5.597  -1.008  25.701  0.00  0.00    +0.159 C 
BRANCH  50  52
ATOM     51  C   LYS A   2       5.111  -3.443  25.877  0.00  0.00    +0.234 C 
ATOM     52  N   LEU A   3       4.815  -2.198  25.376  0.00  0.00    -0.302 N 
ATOM     53  H   LEU A   3       3.911  -2.029  24.950  0.00  0.00    +0.150 HD
ATOM     54  O   LYS A   2       6.133  -3.695  26.511  0.00  0.00    -0.274 OA
BRANCH  51  55
ATOM     55  CA  LYS A   2       4.024  -4.504  25.628  0.00  0.00    +0.159 C 
BRANCH  55  58
ATOM     56  C   VAL A   1       3.750  -6.233  27.379  0.00  0.00    +0.231 C 
ATOM     57  O   VAL A   1       4.184  -7.122  26.648  0.00  0.00    -0.274 OA
ATOM     58  N   LYS A   2       3.568  -4.944  26.940  0.00  0.00    -0.303 N 
ATOM     59  H   LYS A   2       3.216  -4.230  27.573  0.00  0.00    +0.149 HD
BRANCH  56  60
ATOM     60  CA  VAL A   1       3.364  -6.471  28.860  0.00  0.00    +0.140 C 
BRANCH  60  61
ATOM     61  N   VAL A   1       2.942  -7.881  29.002  0.00  0.00    -0.320 NA
ATOM     62  H1  VAL A   1       2.222  -8.059  28.297  0.00  0.00    +0.119 HD
ATOM     63  H2  VAL A   1       2.458  -7.991  29.893  0.00  0.00    +0.119 HD
ENDBRANCH  60  61
BRANCH  60  64
ATOM     64  CB  VAL A   1       4.546  -6.146  29.807  0.00  0.00    +0.009 C 
ATOM     65  CG2 VAL A   1       5.907  -6.417  29.152  0.00  0.00    +0.009 C 
ATOM     66  CG1 VAL A   1       4.510  -4.683  30.272  0.00  0.00    +0.009 C 
ENDBRANCH  60  64
ENDBRANCH  56  60
ENDBRANCH  55  58
BRANCH  55  67
ATOM     67  CB  LYS A   2       2.865  -3.912  24.805  0.00  0.00    +0.032 C 
BRANCH  67  68
ATOM     68  CG  LYS A   2       1.689  -4.884  24.663  0.00  0.00    +0.007 C 
BRANCH  68  69
ATOM     69  CD  LYS A   2       1.520  -5.425  23.243  0.00  0.00    +0.051 C 
BRANCH  69  70
ATOM     70  CE  LYS A   2       2.682  -6.358  22.912  0.00  0.00    +0.127 C 
BRANCH  70  71
ATOM     71  NZ  LYS A   2       2.719  -7.482  23.873  0.00  0.00    +0.219 N 
ATOM     72  HZ1 LYS A   2       2.083  -7.340  24.667  0.00  0.00    +0.199 HD
ATOM     73  HZ2 LYS A   2       3.679  -7.578  24.241  0.00  0.00    +0.199 HD
ATOM     74  HZ3 LYS A   2       2.489  -8.374  23.422  0.00  0.00    +0.199 HD
ENDBRANCH  70  71
ENDBRANCH  69  70
ENDBRANCH  68  69
ENDBRANCH  67  68
ENDBRANCH  55  67
ENDBRANCH  51  55
ENDBRANCH  50  52
BRANCH  50  75
ATOM     75  CB  LEU A   3       5.757  -0.845  27.216  0.00  0.00    +0.034 C 
BRANCH  75  76
ATOM     76  CG  LEU A   3       5.681   0.616  27.708  0.00  0.00    -0.015 C 
ATOM     77  CD2 LEU A   3       4.582   0.752  28.765  0.00  0.00    +0.007 C 
ATOM     78  CD1 LEU A   3       7.011   1.102  28.286  0.00  0.00    +0.007 C 
ENDBRANCH  75  76
ENDBRANCH  50  75
ENDBRANCH  46  50
ENDBRANCH  45  48
BRANCH  45  79
ATOM     79  CB  GLN A   4       8.145  -3.023  22.250  0.00  0.00    +0.041 C 
BRANCH  79  80
ATOM     80  CG  GLN A   4       7.366  -4.041  23.076  0.00  0.00    +0.098 C 
BRANCH  80  81
ATOM     81  CD  GLN A   4       6.302  -4.681  22.206  0.00  0.00    +0.211 C 
ATOM     82  OE1 GLN A   4       5.187  -4.191  22.028  0.00  0.00    -0.276 OA
ATOM     83  NE2 GLN A   4       6.696  -5.824  21.576  0.00  0.00    -0.329 N 
ATOM     84 HE21 GLN A   4       7.586  -6.277  21.763  0.00  0.00    +0.145 HD
ATOM     85 HE22 GLN A   4       6.043  -6.321  20.985  0.00  0.00    +0.145 HD
ENDBRANCH  80  81
ENDBRANCH  79  80
ENDBRANCH  45  79
ENDBRANCH   1  45
TORSDOF 37
ENDMDL
MODEL 18
REMARK VINA RESULT:      -5.2      2.486      8.901
REMARK  Name = VKLQNNEL-mmff94.pdb
REMARK  43 active torsions:
REMARK  status: ('A' for Active; 'I' for Inactive)
REMARK    1  A    between atoms: _1  and  _2
REMARK    2  A    between atoms: _2  and  _3
REMARK    3  A    between atoms: _2  and  _5
REMARK    4  A    between atoms: _5  and  _6
REMARK    5  A    between atoms: _5  and  _7
REMARK    6  A    between atoms: _17  and  _18
REMARK    7  A    between atoms: _18  and  _19
REMARK    8  A    between atoms: _18  and  _21
REMARK    9  A    between atoms: _21  and  _22
REMARK   10  A    between atoms: _22  and  _23
REMARK   11  A    between atoms: _23  and  _24
REMARK   12  A    between atoms: _24  and  _25
REMARK   13  A    between atoms: _39  and  _40
REMARK   14  A    between atoms: _40  and  _41
REMARK   15  A    between atoms: _40  and  _43
REMARK   16  A    between atoms: _43  and  _44
REMARK   17  A    between atoms: _44  and  _45
REMARK   18  A    between atoms: _44  and  _46
REMARK   19  A    between atoms: _58  and  _59
REMARK   20  A    between atoms: _59  and  _60
REMARK   21  A    between atoms: _59  and  _62
REMARK   22  A    between atoms: _62  and  _63
REMARK   23  A    between atoms: _63  and  _64
REMARK   24  A    between atoms: _75  and  _76
REMARK   25  A    between atoms: _76  and  _77
REMARK   26  A    between atoms: _76  and  _79
REMARK   27  A    between atoms: _79  and  _80
REMARK   28  A    between atoms: _89  and  _90
REMARK   29  A    between atoms: _90  and  _91
REMARK   30  A    between atoms: _90  and  _93
REMARK   31  A    between atoms: _93  and  _94
REMARK   32  A    between atoms: _103  and  _104
REMARK   33  A    between atoms: _104  and  _105
REMARK   34  A    between atoms: _104  and  _107
REMARK   35  A    between atoms: _107  and  _108
REMARK   36  A    between atoms: _108  and  _109
REMARK   37  A    between atoms: _109  and  _110
REMARK   38  A    between atoms: _118  and  _119
REMARK   39  A    between atoms: _119  and  _120
REMARK   40  A    between atoms: _119  and  _122
REMARK   41  A    between atoms: _122  and  _123
REMARK   42  A    between atoms: _123  and  _124
REMARK   43  A    between atoms: _123  and  _125
REMARK                            x       y       z     vdW  Elec       q    Type
REMARK                         _______ _______ _______ _____ _____    ______ ____
ROOT
ATOM      1  C   GLN A   4       6.941  -0.860  21.450  0.00  0.00    +0.234 C 
ATOM      2  N   ASN A   5       6.247   0.317  21.564  0.00  0.00    -0.302 N 
ATOM      3  H   ASN A   5       5.524   0.434  22.267  0.00  0.00    +0.150 HD
ATOM      4  O   GLN A   4       7.779  -1.056  20.568  0.00  0.00    -0.274 OA
ENDROOT
BRANCH   2   5
ATOM      5  CA  ASN A   5       6.372   1.383  20.570  0.00  0.00    +0.168 C 
BRANCH   5   6
ATOM      6  C   ASN A   5       6.046   2.699  21.291  0.00  0.00    +0.234 C 
ATOM      7  O   ASN A   5       6.923   3.495  21.628  0.00  0.00    -0.274 OA
ATOM      8  N   ASN A   6       4.718   2.894  21.579  0.00  0.00    -0.302 N 
ATOM      9  H   ASN A   6       4.011   2.223  21.286  0.00  0.00    +0.150 HD
BRANCH   8  10
ATOM     10  CA  ASN A   6       4.226   4.117  22.212  0.00  0.00    +0.168 C 
BRANCH  10  11
ATOM     11  C   ASN A   6       4.472   3.967  23.723  0.00  0.00    +0.234 C 
ATOM     12  N   GLU A   7       5.525   4.693  24.219  0.00  0.00    -0.302 N 
ATOM     13  H   GLU A   7       6.165   5.178  23.595  0.00  0.00    +0.150 HD
ATOM     14  O   ASN A   6       3.739   3.281  24.433  0.00  0.00    -0.274 OA
BRANCH  12  15
ATOM     15  CA  GLU A   7       5.880   4.716  25.641  0.00  0.00    +0.159 C 
BRANCH  15  16
ATOM     16  C   GLU A   7       7.261   4.041  25.730  0.00  0.00    +0.234 C 
ATOM     17  N   LEU A   8       7.635   3.325  24.623  0.00  0.00    -0.304 N 
ATOM     18  H   LEU A   8       7.052   3.331  23.789  0.00  0.00    +0.149 HD
ATOM     19  O   GLU A   7       7.974   4.168  26.724  0.00  0.00    -0.274 OA
BRANCH  17  20
ATOM     20  CA  LEU A   8       8.954   2.715  24.470  0.00  0.00    +0.136 C 
BRANCH  20  21
ATOM     21  C   LEU A   8       9.738   3.602  23.508  0.00  0.00    +0.245 C 
ATOM     22  O   LEU A   8      10.913   3.920  23.690  0.00  0.00    -0.299 OA
ENDBRANCH  20  21
BRANCH  20  23
ATOM     23  CB  LEU A   8       8.876   1.296  23.893  0.00  0.00    +0.032 C 
BRANCH  23  24
ATOM     24  CG  LEU A   8      10.237   0.613  23.656  0.00  0.00    -0.015 C 
ATOM     25  CD2 LEU A   8      10.084  -0.808  23.108  0.00  0.00    +0.007 C 
ATOM     26  CD1 LEU A   8      11.032   0.569  24.964  0.00  0.00    +0.007 C 
ENDBRANCH  23  24
ENDBRANCH  20  23
ENDBRANCH  17  20
ENDBRANCH  15  16
BRANCH  15  27
ATOM     27  CB  GLU A   7       4.840   3.961  26.482  0.00  0.00    +0.038 C 
BRANCH  27  28
ATOM     28  CG  GLU A   7       4.175   4.820  27.556  0.00  0.00    +0.059 C 
BRANCH  28  29
ATOM     29  CD  GLU A   7       4.877   4.667  28.880  0.00  0.00    +0.023 C 
ATOM     30  OE1 GLU A   7       5.948   5.191  29.144  0.00  0.00    -0.851 OA
BRANCH  29  31
ATOM     31  OE2 GLU A   7       4.199   3.909  29.767  0.00  0.00    -0.526 OA
ATOM     32  HE2 GLU A   7       4.258   2.948  29.612  0.00  0.00    +0.290 HD
ENDBRANCH  29  31
ENDBRANCH  28  29
ENDBRANCH  27  28
ENDBRANCH  15  27
ENDBRANCH  12  15
ENDBRANCH  10  11
BRANCH  10  33
ATOM     33  CB  ASN A   6       2.730   4.334  21.982  0.00  0.00    +0.127 C 
BRANCH  33  34
ATOM     34  CG  ASN A   6       2.219   3.674  20.723  0.00  0.00    +0.213 C 
ATOM     35  ND2 ASN A   6       2.210   4.455  19.605  0.00  0.00    -0.329 N 
ATOM     36 HD21 ASN A   6       2.809   5.264  19.512  0.00  0.00    +0.145 HD
ATOM     37 HD22 ASN A   6       1.972   3.982  18.742  0.00  0.00    +0.145 HD
ATOM     38  OD1 ASN A   6       1.806   2.519  20.686  0.00  0.00    -0.276 OA
ENDBRANCH  33  34
ENDBRANCH  10  33
ENDBRANCH   8  10
ENDBRANCH   5   6
BRANCH   5  39
ATOM     39  CB  ASN A   5       5.404   1.225  19.400  0.00  0.00    +0.127 C 
BRANCH  39  40
ATOM     40  CG  ASN A   5       6.045   0.548  18.218  0.00  0.00    +0.213 C 
ATOM     41  OD1 ASN A   5       6.774   1.139  17.428  0.00  0.00    -0.276 OA
ATOM     42  ND2 ASN A   5       5.762  -0.775  18.064  0.00  0.00    -0.329 N 
ATOM     43 HD21 ASN A   5       6.125  -1.227  17.234  0.00  0.00    +0.145 HD
ATOM     44 HD22 ASN A   5       5.035  -1.257  18.573  0.00  0.00    +0.145 HD
ENDBRANCH  39  40
ENDBRANCH   5  39
ENDBRANCH   2   5
BRANCH   1  45
ATOM     45  CA  GLN A   4       6.635  -1.925  22.519  0.00  0.00    +0.159 C 
BRANCH  45  48
ATOM     46  C   LEU A   3       5.998  -1.585  24.902  0.00  0.00    +0.234 C 
ATOM     47  O   LEU A   3       6.685  -2.534  25.288  0.00  0.00    -0.274 OA
ATOM     48  N   GLN A   4       5.900  -1.236  23.577  0.00  0.00    -0.302 N 
ATOM     49  H   GLN A   4       5.306  -0.460  23.290  0.00  0.00    +0.150 HD
BRANCH  46  50
ATOM     50  CA  LEU A   3       5.158  -0.723  25.870  0.00  0.00    +0.159 C 
BRANCH  50  52
ATOM     51  C   LYS A   2       3.466  -1.858  27.300  0.00  0.00    +0.234 C 
ATOM     52  N   LEU A   3       4.775  -1.602  26.972  0.00  0.00    -0.302 N 
ATOM     53  H   LEU A   3       5.511  -2.194  27.340  0.00  0.00    +0.150 HD
ATOM     54  O   LYS A   2       2.512  -1.263  26.804  0.00  0.00    -0.274 OA
BRANCH  51  55
ATOM     55  CA  LYS A   2       3.275  -3.002  28.311  0.00  0.00    +0.159 C 
BRANCH  55  58
ATOM     56  C   VAL A   1       2.925  -5.297  27.451  0.00  0.00    +0.231 C 
ATOM     57  O   VAL A   1       1.789  -5.360  27.920  0.00  0.00    -0.274 OA
ATOM     58  N   LYS A   2       3.746  -4.215  27.658  0.00  0.00    -0.303 N 
ATOM     59  H   LYS A   2       4.676  -4.190  27.248  0.00  0.00    +0.149 HD
BRANCH  56  60
ATOM     60  CA  VAL A   1       3.544  -6.422  26.585  0.00  0.00    +0.140 C 
BRANCH  60  61
ATOM     61  N   VAL A   1       2.619  -7.576  26.604  0.00  0.00    -0.320 NA
ATOM     62  H1  VAL A   1       1.789  -7.295  27.132  0.00  0.00    +0.119 HD
ATOM     63  H2  VAL A   1       3.035  -8.322  27.163  0.00  0.00    +0.119 HD
ENDBRANCH  60  61
BRANCH  60  64
ATOM     64  CB  VAL A   1       3.803  -5.939  25.136  0.00  0.00    +0.009 C 
ATOM     65  CG2 VAL A   1       4.347  -7.058  24.239  0.00  0.00    +0.009 C 
ATOM     66  CG1 VAL A   1       2.528  -5.373  24.494  0.00  0.00    +0.009 C 
ENDBRANCH  60  64
ENDBRANCH  56  60
ENDBRANCH  55  58
BRANCH  55  67
ATOM     67  CB  LYS A   2       4.064  -2.723  29.604  0.00  0.00    +0.032 C 
BRANCH  67  68
ATOM     68  CG  LYS A   2       3.358  -1.717  30.517  0.00  0.00    +0.007 C 
BRANCH  68  69
ATOM     69  CD  LYS A   2       3.935  -0.304  30.422  0.00  0.00    +0.051 C 
BRANCH  69  70
ATOM     70  CE  LYS A   2       2.832   0.669  30.013  0.00  0.00    +0.127 C 
BRANCH  70  71
ATOM     71  NZ  LYS A   2       3.145   1.266  28.697  0.00  0.00    +0.219 N 
ATOM     72  HZ1 LYS A   2       2.902   2.263  28.650  0.00  0.00    +0.199 HD
ATOM     73  HZ2 LYS A   2       2.610   0.768  27.967  0.00  0.00    +0.199 HD
ATOM     74  HZ3 LYS A   2       4.137   1.157  28.457  0.00  0.00    +0.199 HD
ENDBRANCH  70  71
ENDBRANCH  69  70
ENDBRANCH  68  69
ENDBRANCH  67  68
ENDBRANCH  55  67
ENDBRANCH  51  55
ENDBRANCH  50  52
BRANCH  50  75
ATOM     75  CB  LEU A   3       5.959   0.482  26.373  0.00  0.00    +0.034 C 
BRANCH  75  76
ATOM     76  CG  LEU A   3       6.739   0.223  27.679  0.00  0.00    -0.015 C 
ATOM     77  CD2 LEU A   3       8.178  -0.187  27.354  0.00  0.00    +0.007 C 
ATOM     78  CD1 LEU A   3       6.751   1.447  28.598  0.00  0.00    +0.007 C 
ENDBRANCH  75  76
ENDBRANCH  50  75
ENDBRANCH  46  50
ENDBRANCH  45  48
BRANCH  45  79
ATOM     79  CB  GLN A   4       5.785  -3.054  21.923  0.00  0.00    +0.041 C 
BRANCH  79  80
ATOM     80  CG  GLN A   4       6.050  -4.412  22.564  0.00  0.00    +0.098 C 
BRANCH  80  81
ATOM     81  CD  GLN A   4       6.327  -5.433  21.476  0.00  0.00    +0.211 C 
ATOM     82  OE1 GLN A   4       5.938  -5.309  20.315  0.00  0.00    -0.276 OA
ATOM     83  NE2 GLN A   4       7.102  -6.483  21.868  0.00  0.00    -0.329 N 
ATOM     84 HE21 GLN A   4       7.375  -6.636  22.835  0.00  0.00    +0.145 HD
ATOM     85 HE22 GLN A   4       7.325  -7.215  21.207  0.00  0.00    +0.145 HD
ENDBRANCH  80  81
ENDBRANCH  79  80
ENDBRANCH  45  79
ENDBRANCH   1  45
TORSDOF 37
ENDMDL
MODEL 19
REMARK VINA RESULT:      -5.2      1.904      4.941
REMARK  Name = VKLQNNEL-mmff94.pdb
REMARK  43 active torsions:
REMARK  status: ('A' for Active; 'I' for Inactive)
REMARK    1  A    between atoms: _1  and  _2
REMARK    2  A    between atoms: _2  and  _3
REMARK    3  A    between atoms: _2  and  _5
REMARK    4  A    between atoms: _5  and  _6
REMARK    5  A    between atoms: _5  and  _7
REMARK    6  A    between atoms: _17  and  _18
REMARK    7  A    between atoms: _18  and  _19
REMARK    8  A    between atoms: _18  and  _21
REMARK    9  A    between atoms: _21  and  _22
REMARK   10  A    between atoms: _22  and  _23
REMARK   11  A    between atoms: _23  and  _24
REMARK   12  A    between atoms: _24  and  _25
REMARK   13  A    between atoms: _39  and  _40
REMARK   14  A    between atoms: _40  and  _41
REMARK   15  A    between atoms: _40  and  _43
REMARK   16  A    between atoms: _43  and  _44
REMARK   17  A    between atoms: _44  and  _45
REMARK   18  A    between atoms: _44  and  _46
REMARK   19  A    between atoms: _58  and  _59
REMARK   20  A    between atoms: _59  and  _60
REMARK   21  A    between atoms: _59  and  _62
REMARK   22  A    between atoms: _62  and  _63
REMARK   23  A    between atoms: _63  and  _64
REMARK   24  A    between atoms: _75  and  _76
REMARK   25  A    between atoms: _76  and  _77
REMARK   26  A    between atoms: _76  and  _79
REMARK   27  A    between atoms: _79  and  _80
REMARK   28  A    between atoms: _89  and  _90
REMARK   29  A    between atoms: _90  and  _91
REMARK   30  A    between atoms: _90  and  _93
REMARK   31  A    between atoms: _93  and  _94
REMARK   32  A    between atoms: _103  and  _104
REMARK   33  A    between atoms: _104  and  _105
REMARK   34  A    between atoms: _104  and  _107
REMARK   35  A    between atoms: _107  and  _108
REMARK   36  A    between atoms: _108  and  _109
REMARK   37  A    between atoms: _109  and  _110
REMARK   38  A    between atoms: _118  and  _119
REMARK   39  A    between atoms: _119  and  _120
REMARK   40  A    between atoms: _119  and  _122
REMARK   41  A    between atoms: _122  and  _123
REMARK   42  A    between atoms: _123  and  _124
REMARK   43  A    between atoms: _123  and  _125
REMARK                            x       y       z     vdW  Elec       q    Type
REMARK                         _______ _______ _______ _____ _____    ______ ____
ROOT
ATOM      1  C   GLN A   4       7.017  -0.419  22.719  0.00  0.00    +0.234 C 
ATOM      2  N   ASN A   5       8.354  -0.722  22.747  0.00  0.00    -0.302 N 
ATOM      3  H   ASN A   5       8.997  -0.318  22.072  0.00  0.00    +0.150 HD
ATOM      4  O   GLN A   4       6.201  -0.940  23.482  0.00  0.00    -0.274 OA
ENDROOT
BRANCH   2   5
ATOM      5  CA  ASN A   5       8.887  -1.774  23.611  0.00  0.00    +0.168 C 
BRANCH   5   6
ATOM      6  C   ASN A   5       8.093  -3.049  23.294  0.00  0.00    +0.234 C 
ATOM      7  O   ASN A   5       8.147  -3.598  22.192  0.00  0.00    -0.274 OA
ATOM      8  N   ASN A   6       7.281  -3.500  24.306  0.00  0.00    -0.302 N 
ATOM      9  H   ASN A   6       7.257  -3.033  25.209  0.00  0.00    +0.150 HD
BRANCH   8  10
ATOM     10  CA  ASN A   6       6.499  -4.731  24.193  0.00  0.00    +0.168 C 
BRANCH  10  11
ATOM     11  C   ASN A   6       5.065  -4.314  23.825  0.00  0.00    +0.234 C 
ATOM     12  N   GLU A   7       4.172  -4.306  24.867  0.00  0.00    -0.302 N 
ATOM     13  H   GLU A   7       4.427  -4.683  25.776  0.00  0.00    +0.150 HD
ATOM     14  O   ASN A   6       4.765  -3.967  22.684  0.00  0.00    -0.274 OA
BRANCH  12  15
ATOM     15  CA  GLU A   7       2.775  -3.889  24.718  0.00  0.00    +0.159 C 
BRANCH  15  16
ATOM     16  C   GLU A   7       2.457  -3.062  25.978  0.00  0.00    +0.234 C 
ATOM     17  N   LEU A   8       3.225  -3.349  27.076  0.00  0.00    -0.304 N 
ATOM     18  H   LEU A   8       3.996  -4.010  27.002  0.00  0.00    +0.149 HD
ATOM     19  O   GLU A   7       1.589  -2.191  25.970  0.00  0.00    -0.274 OA
BRANCH  17  20
ATOM     20  CA  LEU A   8       3.155  -2.593  28.323  0.00  0.00    +0.136 C 
BRANCH  20  21
ATOM     21  C   LEU A   8       4.222  -1.506  28.236  0.00  0.00    +0.245 C 
ATOM     22  O   LEU A   8       5.145  -1.530  27.422  0.00  0.00    -0.299 OA
ENDBRANCH  20  21
BRANCH  20  23
ATOM     23  CB  LEU A   8       3.431  -3.468  29.552  0.00  0.00    +0.032 C 
BRANCH  23  24
ATOM     24  CG  LEU A   8       3.763  -4.942  29.242  0.00  0.00    -0.015 C 
ATOM     25  CD2 LEU A   8       2.738  -5.905  29.844  0.00  0.00    +0.007 C 
ATOM     26  CD1 LEU A   8       5.157  -5.284  29.777  0.00  0.00    +0.007 C 
ENDBRANCH  23  24
ENDBRANCH  20  23
ENDBRANCH  17  20
ENDBRANCH  15  16
BRANCH  15  27
ATOM     27  CB  GLU A   7       1.844  -5.105  24.606  0.00  0.00    +0.038 C 
BRANCH  27  28
ATOM     28  CG  GLU A   7       2.400  -6.368  25.263  0.00  0.00    +0.059 C 
BRANCH  28  29
ATOM     29  CD  GLU A   7       2.760  -7.401  24.227  0.00  0.00    +0.023 C 
ATOM     30  OE1 GLU A   7       1.941  -7.966  23.519  0.00  0.00    -0.851 OA
BRANCH  29  31
ATOM     31  OE2 GLU A   7       4.086  -7.632  24.131  0.00  0.00    -0.526 OA
ATOM     32  HE2 GLU A   7       4.542  -7.750  24.985  0.00  0.00    +0.290 HD
ENDBRANCH  29  31
ENDBRANCH  28  29
ENDBRANCH  27  28
ENDBRANCH  15  27
ENDBRANCH  12  15
ENDBRANCH  10  11
BRANCH  10  33
ATOM     33  CB  ASN A   6       6.457  -5.519  25.502  0.00  0.00    +0.127 C 
BRANCH  33  34
ATOM     34  CG  ASN A   6       7.463  -5.037  26.520  0.00  0.00    +0.213 C 
ATOM     35  ND2 ASN A   6       8.635  -5.732  26.572  0.00  0.00    -0.329 N 
ATOM     36 HD21 ASN A   6       8.970  -6.276  25.788  0.00  0.00    +0.145 HD
ATOM     37 HD22 ASN A   6       9.349  -5.344  27.175  0.00  0.00    +0.145 HD
ATOM     38  OD1 ASN A   6       7.254  -4.099  27.284  0.00  0.00    -0.276 OA
ENDBRANCH  33  34
ENDBRANCH  10  33
ENDBRANCH   8  10
ENDBRANCH   5   6
BRANCH   5  39
ATOM     39  CB  ASN A   5       8.724  -1.467  25.098  0.00  0.00    +0.127 C 
BRANCH  39  40
ATOM     40  CG  ASN A   5       9.030  -0.027  25.418  0.00  0.00    +0.213 C 
ATOM     41  OD1 ASN A   5       8.155   0.810  25.620  0.00  0.00    -0.276 OA
ATOM     42  ND2 ASN A   5      10.349   0.306  25.465  0.00  0.00    -0.329 N 
ATOM     43 HD21 ASN A   5      10.570   1.284  25.605  0.00  0.00    +0.145 HD
ATOM     44 HD22 ASN A   5      11.091  -0.293  25.133  0.00  0.00    +0.145 HD
ENDBRANCH  39  40
ENDBRANCH   5  39
ENDBRANCH   2   5
BRANCH   1  45
ATOM     45  CA  GLN A   4       6.591   0.645  21.692  0.00  0.00    +0.159 C 
BRANCH  45  48
ATOM     46  C   LEU A   3       5.205   2.679  22.067  0.00  0.00    +0.234 C 
ATOM     47  O   LEU A   3       4.594   2.539  21.005  0.00  0.00    -0.274 OA
ATOM     48  N   GLN A   4       6.200   1.821  22.466  0.00  0.00    -0.302 N 
ATOM     49  H   GLN A   4       6.700   1.979  23.340  0.00  0.00    +0.150 HD
BRANCH  46  50
ATOM     50  CA  LEU A   3       4.928   3.853  23.032  0.00  0.00    +0.159 C 
BRANCH  50  52
ATOM     51  C   LYS A   2       6.322   5.090  24.683  0.00  0.00    +0.234 C 
ATOM     52  N   LEU A   3       6.199   4.153  23.686  0.00  0.00    -0.302 N 
ATOM     53  H   LEU A   3       6.943   3.481  23.532  0.00  0.00    +0.150 HD
ATOM     54  O   LYS A   2       5.419   5.859  25.007  0.00  0.00    -0.274 OA
BRANCH  51  55
ATOM     55  CA  LYS A   2       7.676   5.069  25.413  0.00  0.00    +0.159 C 
BRANCH  55  58
ATOM     56  C   VAL A   1       7.101   3.845  27.486  0.00  0.00    +0.231 C 
ATOM     57  O   VAL A   1       6.663   4.858  28.030  0.00  0.00    -0.274 OA
ATOM     58  N   LYS A   2       7.681   3.872  26.242  0.00  0.00    -0.303 N 
ATOM     59  H   LYS A   2       8.025   3.015  25.816  0.00  0.00    +0.149 HD
BRANCH  56  60
ATOM     60  CA  VAL A   1       7.046   2.443  28.144  0.00  0.00    +0.140 C 
BRANCH  60  61
ATOM     61  N   VAL A   1       7.670   2.540  29.480  0.00  0.00    -0.320 NA
ATOM     62  H1  VAL A   1       6.986   2.203  30.164  0.00  0.00    +0.119 HD
ATOM     63  H2  VAL A   1       7.798   3.525  29.714  0.00  0.00    +0.119 HD
ENDBRANCH  60  61
BRANCH  60  64
ATOM     64  CB  VAL A   1       5.589   1.927  28.245  0.00  0.00    +0.009 C 
ATOM     65  CG2 VAL A   1       4.855   2.497  29.466  0.00  0.00    +0.009 C 
ATOM     66  CG1 VAL A   1       4.780   2.269  26.986  0.00  0.00    +0.009 C 
ENDBRANCH  60  64
ENDBRANCH  56  60
ENDBRANCH  55  58
BRANCH  55  67
ATOM     67  CB  LYS A   2       8.838   5.054  24.403  0.00  0.00    +0.032 C 
BRANCH  67  68
ATOM     68  CG  LYS A   2       9.355   3.639  24.124  0.00  0.00    +0.007 C 
BRANCH  68  69
ATOM     69  CD  LYS A   2      10.782   3.612  23.577  0.00  0.00    +0.051 C 
BRANCH  69  70
ATOM     70  CE  LYS A   2      11.356   5.027  23.585  0.00  0.00    +0.127 C 
BRANCH  70  71
ATOM     71  NZ  LYS A   2      12.802   4.989  23.276  0.00  0.00    +0.219 N 
ATOM     72  HZ1 LYS A   2      13.171   4.031  23.240  0.00  0.00    +0.199 HD
ATOM     73  HZ2 LYS A   2      13.315   5.506  24.008  0.00  0.00    +0.199 HD
ATOM     74  HZ3 LYS A   2      13.012   5.456  22.387  0.00  0.00    +0.199 HD
ENDBRANCH  70  71
ENDBRANCH  69  70
ENDBRANCH  68  69
ENDBRANCH  67  68
ENDBRANCH  55  67
ENDBRANCH  51  55
ENDBRANCH  50  52
BRANCH  50  75
ATOM     75  CB  LEU A   3       4.390   5.074  22.277  0.00  0.00    +0.034 C 
BRANCH  75  76
ATOM     76  CG  LEU A   3       2.896   5.366  22.529  0.00  0.00    -0.015 C 
ATOM     77  CD2 LEU A   3       2.090   5.089  21.257  0.00  0.00    +0.007 C 
ATOM     78  CD1 LEU A   3       2.331   4.537  23.684  0.00  0.00    +0.007 C 
ENDBRANCH  75  76
ENDBRANCH  50  75
ENDBRANCH  46  50
ENDBRANCH  45  48
BRANCH  45  79
ATOM     79  CB  GLN A   4       7.757   0.982  20.754  0.00  0.00    +0.041 C 
BRANCH  79  80
ATOM     80  CG  GLN A   4       7.717   0.209  19.440  0.00  0.00    +0.098 C 
BRANCH  80  81
ATOM     81  CD  GLN A   4       6.301   0.216  18.899  0.00  0.00    +0.211 C 
ATOM     82  OE1 GLN A   4       5.819   1.158  18.271  0.00  0.00    -0.276 OA
ATOM     83  NE2 GLN A   4       5.608  -0.940  19.108  0.00  0.00    -0.329 N 
ATOM     84 HE21 GLN A   4       5.965  -1.699  19.681  0.00  0.00    +0.145 HD
ATOM     85 HE22 GLN A   4       4.652  -1.015  18.789  0.00  0.00    +0.145 HD
ENDBRANCH  80  81
ENDBRANCH  79  80
ENDBRANCH  45  79
ENDBRANCH   1  45
TORSDOF 37
ENDMDL
MODEL 20
REMARK VINA RESULT:      -5.1      2.392      6.960
REMARK  Name = VKLQNNEL-mmff94.pdb
REMARK  43 active torsions:
REMARK  status: ('A' for Active; 'I' for Inactive)
REMARK    1  A    between atoms: _1  and  _2
REMARK    2  A    between atoms: _2  and  _3
REMARK    3  A    between atoms: _2  and  _5
REMARK    4  A    between atoms: _5  and  _6
REMARK    5  A    between atoms: _5  and  _7
REMARK    6  A    between atoms: _17  and  _18
REMARK    7  A    between atoms: _18  and  _19
REMARK    8  A    between atoms: _18  and  _21
REMARK    9  A    between atoms: _21  and  _22
REMARK   10  A    between atoms: _22  and  _23
REMARK   11  A    between atoms: _23  and  _24
REMARK   12  A    between atoms: _24  and  _25
REMARK   13  A    between atoms: _39  and  _40
REMARK   14  A    between atoms: _40  and  _41
REMARK   15  A    between atoms: _40  and  _43
REMARK   16  A    between atoms: _43  and  _44
REMARK   17  A    between atoms: _44  and  _45
REMARK   18  A    between atoms: _44  and  _46
REMARK   19  A    between atoms: _58  and  _59
REMARK   20  A    between atoms: _59  and  _60
REMARK   21  A    between atoms: _59  and  _62
REMARK   22  A    between atoms: _62  and  _63
REMARK   23  A    between atoms: _63  and  _64
REMARK   24  A    between atoms: _75  and  _76
REMARK   25  A    between atoms: _76  and  _77
REMARK   26  A    between atoms: _76  and  _79
REMARK   27  A    between atoms: _79  and  _80
REMARK   28  A    between atoms: _89  and  _90
REMARK   29  A    between atoms: _90  and  _91
REMARK   30  A    between atoms: _90  and  _93
REMARK   31  A    between atoms: _93  and  _94
REMARK   32  A    between atoms: _103  and  _104
REMARK   33  A    between atoms: _104  and  _105
REMARK   34  A    between atoms: _104  and  _107
REMARK   35  A    between atoms: _107  and  _108
REMARK   36  A    between atoms: _108  and  _109
REMARK   37  A    between atoms: _109  and  _110
REMARK   38  A    between atoms: _118  and  _119
REMARK   39  A    between atoms: _119  and  _120
REMARK   40  A    between atoms: _119  and  _122
REMARK   41  A    between atoms: _122  and  _123
REMARK   42  A    between atoms: _123  and  _124
REMARK   43  A    between atoms: _123  and  _125
REMARK                            x       y       z     vdW  Elec       q    Type
REMARK                         _______ _______ _______ _____ _____    ______ ____
ROOT
ATOM      1  C   GLN A   4       5.274  -2.962  27.576  0.00  0.00    +0.234 C 
ATOM      2  N   ASN A   5       5.226  -4.318  27.779  0.00  0.00    -0.302 N 
ATOM      3  H   ASN A   5       4.569  -4.726  28.437  0.00  0.00    +0.150 HD
ATOM      4  O   GLN A   4       6.100  -2.430  26.833  0.00  0.00    -0.274 OA
ENDROOT
BRANCH   2   5
ATOM      5  CA  ASN A   5       6.232  -5.216  27.213  0.00  0.00    +0.168 C 
BRANCH   5   6
ATOM      6  C   ASN A   5       5.586  -5.889  25.994  0.00  0.00    +0.234 C 
ATOM      7  O   ASN A   5       5.039  -6.990  26.066  0.00  0.00    -0.274 OA
ATOM      8  N   ASN A   6       5.712  -5.202  24.811  0.00  0.00    -0.302 N 
ATOM      9  H   ASN A   6       6.164  -4.291  24.777  0.00  0.00    +0.150 HD
BRANCH   8  10
ATOM     10  CA  ASN A   6       5.108  -5.671  23.565  0.00  0.00    +0.168 C 
BRANCH  10  11
ATOM     11  C   ASN A   6       5.892  -5.015  22.416  0.00  0.00    +0.234 C 
ATOM     12  N   GLU A   7       6.106  -3.666  22.549  0.00  0.00    -0.302 N 
ATOM     13  H   GLU A   7       5.653  -3.136  23.288  0.00  0.00    +0.150 HD
ATOM     14  O   ASN A   6       6.334  -5.673  21.476  0.00  0.00    -0.274 OA
BRANCH  12  15
ATOM     15  CA  GLU A   7       6.876  -2.881  21.579  0.00  0.00    +0.159 C 
BRANCH  15  16
ATOM     16  C   GLU A   7       8.199  -2.537  22.289  0.00  0.00    +0.234 C 
ATOM     17  N   LEU A   8       8.254  -2.867  23.618  0.00  0.00    -0.304 N 
ATOM     18  H   LEU A   8       7.486  -3.377  24.050  0.00  0.00    +0.149 HD
ATOM     19  O   GLU A   7       9.138  -2.026  21.681  0.00  0.00    -0.274 OA
BRANCH  17  20
ATOM     20  CA  LEU A   8       9.460  -2.729  24.429  0.00  0.00    +0.136 C 
BRANCH  20  21
ATOM     21  C   LEU A   8       9.674  -4.070  25.127  0.00  0.00    +0.245 C 
ATOM     22  O   LEU A   8       9.480  -5.154  24.578  0.00  0.00    -0.299 OA
ENDBRANCH  20  21
BRANCH  20  23
ATOM     23  CB  LEU A   8       9.328  -1.629  25.489  0.00  0.00    +0.032 C 
BRANCH  23  24
ATOM     24  CG  LEU A   8       9.362  -0.188  24.942  0.00  0.00    -0.015 C 
ATOM     25  CD2 LEU A   8      10.774   0.402  24.954  0.00  0.00    +0.007 C 
ATOM     26  CD1 LEU A   8       8.432   0.704  25.769  0.00  0.00    +0.007 C 
ENDBRANCH  23  24
ENDBRANCH  20  23
ENDBRANCH  17  20
ENDBRANCH  15  16
BRANCH  15  27
ATOM     27  CB  GLU A   7       6.119  -1.608  21.174  0.00  0.00    +0.038 C 
BRANCH  27  28
ATOM     28  CG  GLU A   7       7.016  -0.517  20.591  0.00  0.00    +0.059 C 
BRANCH  28  29
ATOM     29  CD  GLU A   7       6.502  -0.055  19.253  0.00  0.00    +0.023 C 
ATOM     30  OE1 GLU A   7       5.336   0.233  19.037  0.00  0.00    -0.851 OA
BRANCH  29  31
ATOM     31  OE2 GLU A   7       7.461   0.036  18.307  0.00  0.00    -0.526 OA
ATOM     32  HE2 GLU A   7       7.809   0.935  18.164  0.00  0.00    +0.290 HD
ENDBRANCH  29  31
ENDBRANCH  28  29
ENDBRANCH  27  28
ENDBRANCH  15  27
ENDBRANCH  12  15
ENDBRANCH  10  11
BRANCH  10  33
ATOM     33  CB  ASN A   6       3.637  -5.272  23.441  0.00  0.00    +0.127 C 
BRANCH  33  34
ATOM     34  CG  ASN A   6       3.206  -4.258  24.475  0.00  0.00    +0.213 C 
ATOM     35  ND2 ASN A   6       2.183  -4.639  25.291  0.00  0.00    -0.329 N 
ATOM     36 HD21 ASN A   6       1.963  -5.612  25.454  0.00  0.00    +0.145 HD
ATOM     37 HD22 ASN A   6       1.968  -4.006  26.051  0.00  0.00    +0.145 HD
ATOM     38  OD1 ASN A   6       3.710  -3.143  24.577  0.00  0.00    -0.276 OA
ENDBRANCH  33  34
ENDBRANCH  10  33
ENDBRANCH   8  10
ENDBRANCH   5   6
BRANCH   5  39
ATOM     39  CB  ASN A   5       6.671  -6.308  28.186  0.00  0.00    +0.127 C 
BRANCH  39  40
ATOM     40  CG  ASN A   5       5.759  -6.407  29.380  0.00  0.00    +0.213 C 
ATOM     41  OD1 ASN A   5       5.955  -5.784  30.420  0.00  0.00    -0.276 OA
ATOM     42  ND2 ASN A   5       4.692  -7.242  29.249  0.00  0.00    -0.329 N 
ATOM     43 HD21 ASN A   5       4.112  -7.376  30.067  0.00  0.00    +0.145 HD
ATOM     44 HD22 ASN A   5       4.588  -7.904  28.494  0.00  0.00    +0.145 HD
ENDBRANCH  39  40
ENDBRANCH   5  39
ENDBRANCH   2   5
BRANCH   1  45
ATOM     45  CA  GLN A   4       4.204  -2.135  28.313  0.00  0.00    +0.159 C 
BRANCH  45  48
ATOM     46  C   LEU A   3       4.370   0.158  27.357  0.00  0.00    +0.234 C 
ATOM     47  O   LEU A   3       3.669  -0.126  26.384  0.00  0.00    -0.274 OA
ATOM     48  N   GLN A   4       4.696  -0.759  28.326  0.00  0.00    -0.302 N 
ATOM     49  H   GLN A   4       5.296  -0.496  29.106  0.00  0.00    +0.150 HD
BRANCH  46  50
ATOM     50  CA  LEU A   3       4.975   1.565  27.560  0.00  0.00    +0.159 C 
BRANCH  50  52
ATOM     51  C   LYS A   2       5.205   3.493  26.002  0.00  0.00    +0.234 C 
ATOM     52  N   LEU A   3       4.541   2.364  26.416  0.00  0.00    -0.302 N 
ATOM     53  H   LEU A   3       3.865   1.925  25.803  0.00  0.00    +0.150 HD
ATOM     54  O   LYS A   2       6.120   4.014  26.636  0.00  0.00    -0.274 OA
BRANCH  51  55
ATOM     55  CA  LYS A   2       4.748   4.036  24.636  0.00  0.00    +0.159 C 
BRANCH  55  58
ATOM     56  C   VAL A   1       6.418   2.863  23.235  0.00  0.00    +0.231 C 
ATOM     57  O   VAL A   1       5.989   1.754  23.553  0.00  0.00    -0.274 OA
ATOM     58  N   LYS A   2       5.920   4.025  23.773  0.00  0.00    -0.303 N 
ATOM     59  H   LYS A   2       6.290   4.926  23.481  0.00  0.00    +0.149 HD
BRANCH  56  60
ATOM     60  CA  VAL A   1       7.555   3.064  22.203  0.00  0.00    +0.140 C 
BRANCH  60  61
ATOM     61  N   VAL A   1       7.699   4.514  21.956  0.00  0.00    -0.320 NA
ATOM     62  H1  VAL A   1       6.775   4.876  21.704  0.00  0.00    +0.119 HD
ATOM     63  H2  VAL A   1       8.262   4.651  21.116  0.00  0.00    +0.119 HD
ENDBRANCH  60  61
BRANCH  60  64
ATOM     64  CB  VAL A   1       8.885   2.449  22.705  0.00  0.00    +0.009 C 
ATOM     65  CG2 VAL A   1       9.655   1.736  21.585  0.00  0.00    +0.009 C 
ATOM     66  CG1 VAL A   1       9.800   3.515  23.325  0.00  0.00    +0.009 C 
ENDBRANCH  60  64
ENDBRANCH  56  60
ENDBRANCH  55  58
BRANCH  55  67
ATOM     67  CB  LYS A   2       3.619   3.164  24.055  0.00  0.00    +0.032 C 
BRANCH  67  68
ATOM     68  CG  LYS A   2       2.919   3.826  22.865  0.00  0.00    +0.007 C 
BRANCH  68  69
ATOM     69  CD  LYS A   2       2.026   2.867  22.077  0.00  0.00    +0.051 C 
BRANCH  69  70
ATOM     70  CE  LYS A   2       2.448   2.868  20.610  0.00  0.00    +0.127 C 
BRANCH  70  71
ATOM     71  NZ  LYS A   2       3.871   2.486  20.491  0.00  0.00    +0.219 N 
ATOM     72  HZ1 LYS A   2       3.993   1.539  20.112  0.00  0.00    +0.199 HD
ATOM     73  HZ2 LYS A   2       4.306   2.517  21.427  0.00  0.00    +0.199 HD
ATOM     74  HZ3 LYS A   2       4.393   3.146  19.905  0.00  0.00    +0.199 HD
ENDBRANCH  70  71
ENDBRANCH  69  70
ENDBRANCH  68  69
ENDBRANCH  67  68
ENDBRANCH  55  67
ENDBRANCH  51  55
ENDBRANCH  50  52
BRANCH  50  75
ATOM     75  CB  LEU A   3       4.503   2.184  28.880  0.00  0.00    +0.034 C 
BRANCH  75  76
ATOM     76  CG  LEU A   3       5.641   2.510  29.869  0.00  0.00    -0.015 C 
ATOM     77  CD2 LEU A   3       6.962   1.936  29.351  0.00  0.00    +0.007 C 
ATOM     78  CD1 LEU A   3       5.793   4.015  30.100  0.00  0.00    +0.007 C 
ENDBRANCH  75  76
ENDBRANCH  50  75
ENDBRANCH  46  50
ENDBRANCH  45  48
BRANCH  45  79
ATOM     79  CB  GLN A   4       2.861  -2.219  27.576  0.00  0.00    +0.041 C 
BRANCH  79  80
ATOM     80  CG  GLN A   4       1.729  -2.753  28.446  0.00  0.00    +0.098 C 
BRANCH  80  81
ATOM     81  CD  GLN A   4       2.105  -4.126  28.968  0.00  0.00    +0.211 C 
ATOM     82  OE1 GLN A   4       2.439  -5.060  28.240  0.00  0.00    -0.276 OA
ATOM     83  NE2 GLN A   4       2.107  -4.235  30.327  0.00  0.00    -0.329 N 
ATOM     84 HE21 GLN A   4       1.770  -3.497  30.939  0.00  0.00    +0.145 HD
ATOM     85 HE22 GLN A   4       2.335  -5.121  30.758  0.00  0.00    +0.145 HD
ENDBRANCH  80  81
ENDBRANCH  79  80
ENDBRANCH  45  79
ENDBRANCH   1  45
TORSDOF 37
ENDMDL
