MODEL 1
REMARK VINA RESULT:      -5.7      0.000      0.000
REMARK  Name = VRLQAGNA-mmff94.pdb
REMARK  34 active torsions:
REMARK  status: ('A' for Active; 'I' for Inactive)
REMARK    1  A    between atoms: _1  and  _2
REMARK    2  A    between atoms: _2  and  _3
REMARK    3  A    between atoms: _2  and  _5
REMARK    4  A    between atoms: _5  and  _6
REMARK    5  A    between atoms: _5  and  _7
REMARK    6  A    between atoms: _17  and  _18
REMARK    7  A    between atoms: _18  and  _19
REMARK    8  A    between atoms: _18  and  _21
REMARK    9  A    between atoms: _21  and  _22
REMARK   10  A    between atoms: _22  and  _23
REMARK   11  A    between atoms: _23  and  _24
REMARK   12  A    between atoms: _41  and  _42
REMARK   13  A    between atoms: _42  and  _43
REMARK   14  A    between atoms: _42  and  _45
REMARK   15  A    between atoms: _45  and  _46
REMARK   16  A    between atoms: _46  and  _47
REMARK   17  A    between atoms: _46  and  _48
REMARK   18  A    between atoms: _60  and  _61
REMARK   19  A    between atoms: _61  and  _62
REMARK   20  A    between atoms: _61  and  _64
REMARK   21  A    between atoms: _64  and  _65
REMARK   22  A    between atoms: _65  and  _66
REMARK   23  A    between atoms: _77  and  _78
REMARK   24  A    between atoms: _78  and  _79
REMARK   25  A    between atoms: _78  and  _81
REMARK   26  A    between atoms: _87  and  _88
REMARK   27  A    between atoms: _88  and  _89
REMARK   28  A    between atoms: _94  and  _95
REMARK   29  A    between atoms: _95  and  _96
REMARK   30  A    between atoms: _95  and  _98
REMARK   31  A    between atoms: _98  and  _99
REMARK   32  A    between atoms: _108  and  _109
REMARK   33  A    between atoms: _109  and  _110
REMARK   34  A    between atoms: _109  and  _112
REMARK                            x       y       z     vdW  Elec       q    Type
REMARK                         _______ _______ _______ _____ _____    ______ ____
ROOT
ATOM      1  CA  GLN A   4       9.707  -0.852  23.969  0.00  0.00    +0.159 C 
ENDROOT
BRANCH   1   2
ATOM      2  C   GLN A   4       9.685  -2.379  24.171  0.00  0.00    +0.234 C 
ATOM      3  O   GLN A   4      10.421  -3.122  23.521  0.00  0.00    -0.274 OA
ATOM      4  N   ALA A   5       8.773  -2.847  25.081  0.00  0.00    -0.303 N 
ATOM      5  H   ALA A   5       8.224  -2.215  25.656  0.00  0.00    +0.149 HD
BRANCH   4   6
ATOM      6  CA  ALA A   5       8.649  -4.270  25.399  0.00  0.00    +0.156 C 
ATOM      7  CB  ALA A   5       9.793  -4.741  26.292  0.00  0.00    +0.038 C 
BRANCH   6   8
ATOM      8  C   ALA A   5       7.294  -4.481  26.102  0.00  0.00    +0.233 C 
ATOM      9  N   GLY A   6       7.072  -5.752  26.563  0.00  0.00    -0.305 N 
ATOM     10  H   GLY A   6       7.733  -6.503  26.379  0.00  0.00    +0.149 HD
ATOM     11  O   ALA A   5       6.483  -3.564  26.239  0.00  0.00    -0.274 OA
BRANCH   9  12
ATOM     12  CA  GLY A   6       5.889  -6.103  27.327  0.00  0.00    +0.200 C 
BRANCH  12  13
ATOM     13  C   GLY A   6       4.690  -6.199  26.384  0.00  0.00    +0.231 C 
ATOM     14  O   GLY A   6       4.327  -7.264  25.887  0.00  0.00    -0.274 OA
ATOM     15  N   ASN A   7       4.068  -5.004  26.122  0.00  0.00    -0.302 N 
ATOM     16  H   ASN A   7       4.436  -4.133  26.499  0.00  0.00    +0.150 HD
BRANCH  15  17
ATOM     17  CA  ASN A   7       2.862  -4.902  25.301  0.00  0.00    +0.168 C 
BRANCH  17  18
ATOM     18  C   ASN A   7       3.325  -4.794  23.837  0.00  0.00    +0.234 C 
ATOM     19  N   ALA A   8       4.555  -4.211  23.656  0.00  0.00    -0.305 N 
ATOM     20  H   ALA A   8       5.119  -3.915  24.449  0.00  0.00    +0.149 HD
ATOM     21  O   ASN A   7       2.653  -5.231  22.904  0.00  0.00    -0.274 OA
BRANCH  19  22
ATOM     22  CA  ALA A   8       5.196  -4.124  22.349  0.00  0.00    +0.133 C 
ATOM     23  CB  ALA A   8       6.055  -2.876  22.215  0.00  0.00    +0.035 C 
BRANCH  22  24
ATOM     24  C   ALA A   8       6.065  -5.362  22.178  0.00  0.00    +0.245 C 
ATOM     25  O   ALA A   8       7.113  -5.364  21.532  0.00  0.00    -0.299 OA
ENDBRANCH  22  24
ENDBRANCH  19  22
ENDBRANCH  17  18
BRANCH  17  26
ATOM     26  CB  ASN A   7       2.022  -3.674  25.647  0.00  0.00    +0.127 C 
BRANCH  26  27
ATOM     27  CG  ASN A   7       2.810  -2.585  26.329  0.00  0.00    +0.213 C 
ATOM     28  OD1 ASN A   7       3.713  -1.970  25.771  0.00  0.00    -0.276 OA
ATOM     29  ND2 ASN A   7       2.448  -2.289  27.608  0.00  0.00    -0.329 N 
ATOM     30 HD21 ASN A   7       3.056  -1.631  28.080  0.00  0.00    +0.145 HD
ATOM     31 HD22 ASN A   7       2.015  -2.981  28.204  0.00  0.00    +0.145 HD
ENDBRANCH  26  27
ENDBRANCH  17  26
ENDBRANCH  15  17
ENDBRANCH  12  13
ENDBRANCH   9  12
ENDBRANCH   6   8
ENDBRANCH   4   6
ENDBRANCH   1   2
BRANCH   1  33
ATOM     32  C   LEU A   3       8.502   0.242  22.084  0.00  0.00    +0.234 C 
ATOM     33  N   GLN A   4       8.493  -0.526  23.221  0.00  0.00    -0.302 N 
ATOM     34  H   GLN A   4       7.616  -0.863  23.616  0.00  0.00    +0.150 HD
ATOM     35  O   LEU A   3       9.539   0.722  21.618  0.00  0.00    -0.274 OA
BRANCH  32  36
ATOM     36  CA  LEU A   3       7.114   0.485  21.453  0.00  0.00    +0.159 C 
BRANCH  36  39
ATOM     37  C   ARG A   2       5.874   1.558  23.323  0.00  0.00    +0.234 C 
ATOM     38  O   ARG A   2       5.596   0.490  23.866  0.00  0.00    -0.274 OA
ATOM     39  N   LEU A   3       6.549   1.647  22.131  0.00  0.00    -0.302 N 
ATOM     40  H   LEU A   3       6.836   2.554  21.777  0.00  0.00    +0.150 HD
BRANCH  37  41
ATOM     41  CA  ARG A   2       5.518   2.910  23.960  0.00  0.00    +0.159 C 
BRANCH  41  43
ATOM     42  C   VAL A   1       4.081   2.473  25.931  0.00  0.00    +0.231 C 
ATOM     43  N   ARG A   2       5.327   2.654  25.381  0.00  0.00    -0.303 N 
ATOM     44  H   ARG A   2       6.163   2.534  25.949  0.00  0.00    +0.149 HD
ATOM     45  O   VAL A   1       3.048   2.623  25.282  0.00  0.00    -0.274 OA
BRANCH  42  46
ATOM     46  CA  VAL A   1       4.091   2.073  27.427  0.00  0.00    +0.140 C 
BRANCH  46  47
ATOM     47  N   VAL A   1       4.007   0.599  27.508  0.00  0.00    -0.320 NA
ATOM     48  H1  VAL A   1       3.047   0.312  27.320  0.00  0.00    +0.119 HD
ATOM     49  H2  VAL A   1       4.544   0.217  26.724  0.00  0.00    +0.119 HD
ENDBRANCH  46  47
BRANCH  46  50
ATOM     50  CB  VAL A   1       5.360   2.602  28.140  0.00  0.00    +0.009 C 
ATOM     51  CG2 VAL A   1       5.227   4.078  28.537  0.00  0.00    +0.009 C 
ATOM     52  CG1 VAL A   1       5.686   1.784  29.397  0.00  0.00    +0.009 C 
ENDBRANCH  46  50
ENDBRANCH  42  46
ENDBRANCH  41  43
BRANCH  41  53
ATOM     53  CB  ARG A   2       6.641   3.934  23.732  0.00  0.00    +0.035 C 
BRANCH  53  54
ATOM     54  CG  ARG A   2       6.992   4.733  24.990  0.00  0.00    +0.039 C 
BRANCH  54  55
ATOM     55  CD  ARG A   2       8.475   4.624  25.337  0.00  0.00    +0.196 C 
BRANCH  55  56
ATOM     56  NE  ARG A   2       9.163   3.727  24.396  0.00  0.00    -0.279 N 
ATOM     57  HE  ARG A   2       8.891   2.747  24.351  0.00  0.00    +0.258 HD
ATOM     58  CZ  ARG A   2      10.148   4.101  23.567  0.00  0.00    +0.341 C 
ATOM     59  NH2 ARG A   2      10.743   3.194  22.796  0.00  0.00    -0.292 N 
ATOM     60 HH21 ARG A   2      10.563   2.189  22.930  0.00  0.00    +0.255 HD
ATOM     61 HH22 ARG A   2      11.461   3.430  22.129  0.00  0.00    +0.255 HD
ATOM     62  NH1 ARG A   2      10.561   5.370  23.492  0.00  0.00    -0.292 N 
ATOM     63 HH11 ARG A   2      10.145   6.092  24.064  0.00  0.00    +0.255 HD
ATOM     64 HH12 ARG A   2      11.310   5.644  22.871  0.00  0.00    +0.255 HD
ENDBRANCH  55  56
ENDBRANCH  54  55
ENDBRANCH  53  54
ENDBRANCH  41  53
ENDBRANCH  37  41
ENDBRANCH  36  39
BRANCH  36  65
ATOM     65  CB  LEU A   3       7.224   0.724  19.941  0.00  0.00    +0.034 C 
BRANCH  65  66
ATOM     66  CG  LEU A   3       5.947   0.379  19.147  0.00  0.00    -0.015 C 
ATOM     67  CD2 LEU A   3       5.899   1.200  17.856  0.00  0.00    +0.007 C 
ATOM     68  CD1 LEU A   3       5.862  -1.111  18.808  0.00  0.00    +0.007 C 
ENDBRANCH  65  66
ENDBRANCH  36  65
ENDBRANCH  32  36
ENDBRANCH   1  33
BRANCH   1  69
ATOM     69  CB  GLN A   4       9.722  -0.117  25.316  0.00  0.00    +0.041 C 
BRANCH  69  70
ATOM     70  CG  GLN A   4       8.419   0.622  25.607  0.00  0.00    +0.098 C 
BRANCH  70  71
ATOM     71  CD  GLN A   4       7.701  -0.065  26.749  0.00  0.00    +0.211 C 
ATOM     72  OE1 GLN A   4       8.146  -0.111  27.896  0.00  0.00    -0.276 OA
ATOM     73  NE2 GLN A   4       6.471  -0.560  26.440  0.00  0.00    -0.329 N 
ATOM     74 HE21 GLN A   4       6.109  -0.577  25.494  0.00  0.00    +0.145 HD
ATOM     75 HE22 GLN A   4       5.933  -1.042  27.147  0.00  0.00    +0.145 HD
ENDBRANCH  70  71
ENDBRANCH  69  70
ENDBRANCH   1  69
TORSDOF 28
ENDMDL
MODEL 2
REMARK VINA RESULT:      -5.7      2.224      4.903
REMARK  Name = VRLQAGNA-mmff94.pdb
REMARK  34 active torsions:
REMARK  status: ('A' for Active; 'I' for Inactive)
REMARK    1  A    between atoms: _1  and  _2
REMARK    2  A    between atoms: _2  and  _3
REMARK    3  A    between atoms: _2  and  _5
REMARK    4  A    between atoms: _5  and  _6
REMARK    5  A    between atoms: _5  and  _7
REMARK    6  A    between atoms: _17  and  _18
REMARK    7  A    between atoms: _18  and  _19
REMARK    8  A    between atoms: _18  and  _21
REMARK    9  A    between atoms: _21  and  _22
REMARK   10  A    between atoms: _22  and  _23
REMARK   11  A    between atoms: _23  and  _24
REMARK   12  A    between atoms: _41  and  _42
REMARK   13  A    between atoms: _42  and  _43
REMARK   14  A    between atoms: _42  and  _45
REMARK   15  A    between atoms: _45  and  _46
REMARK   16  A    between atoms: _46  and  _47
REMARK   17  A    between atoms: _46  and  _48
REMARK   18  A    between atoms: _60  and  _61
REMARK   19  A    between atoms: _61  and  _62
REMARK   20  A    between atoms: _61  and  _64
REMARK   21  A    between atoms: _64  and  _65
REMARK   22  A    between atoms: _65  and  _66
REMARK   23  A    between atoms: _77  and  _78
REMARK   24  A    between atoms: _78  and  _79
REMARK   25  A    between atoms: _78  and  _81
REMARK   26  A    between atoms: _87  and  _88
REMARK   27  A    between atoms: _88  and  _89
REMARK   28  A    between atoms: _94  and  _95
REMARK   29  A    between atoms: _95  and  _96
REMARK   30  A    between atoms: _95  and  _98
REMARK   31  A    between atoms: _98  and  _99
REMARK   32  A    between atoms: _108  and  _109
REMARK   33  A    between atoms: _109  and  _110
REMARK   34  A    between atoms: _109  and  _112
REMARK                            x       y       z     vdW  Elec       q    Type
REMARK                         _______ _______ _______ _____ _____    ______ ____
ROOT
ATOM      1  CA  GLN A   4       8.772  -0.731  22.482  0.00  0.00    +0.159 C 
ENDROOT
BRANCH   1   2
ATOM      2  C   GLN A   4       7.531  -1.432  21.896  0.00  0.00    +0.234 C 
ATOM      3  O   GLN A   4       6.803  -0.868  21.079  0.00  0.00    -0.274 OA
ATOM      4  N   ALA A   5       7.278  -2.692  22.373  0.00  0.00    -0.303 N 
ATOM      5  H   ALA A   5       7.927  -3.166  22.994  0.00  0.00    +0.149 HD
BRANCH   4   6
ATOM      6  CA  ALA A   5       6.150  -3.493  21.896  0.00  0.00    +0.156 C 
ATOM      7  CB  ALA A   5       6.624  -4.805  21.278  0.00  0.00    +0.038 C 
BRANCH   6   8
ATOM      8  C   ALA A   5       5.223  -3.765  23.096  0.00  0.00    +0.233 C 
ATOM      9  N   GLY A   6       4.693  -5.028  23.144  0.00  0.00    -0.305 N 
ATOM     10  H   GLY A   6       4.851  -5.696  22.393  0.00  0.00    +0.149 HD
ATOM     11  O   ALA A   5       4.990  -2.906  23.947  0.00  0.00    -0.274 OA
BRANCH   9  12
ATOM     12  CA  GLY A   6       3.872  -5.482  24.252  0.00  0.00    +0.200 C 
BRANCH  12  13
ATOM     13  C   GLY A   6       4.774  -6.063  25.341  0.00  0.00    +0.231 C 
ATOM     14  O   GLY A   6       4.710  -7.241  25.689  0.00  0.00    -0.274 OA
ATOM     15  N   ASN A   7       5.640  -5.163  25.910  0.00  0.00    -0.302 N 
ATOM     16  H   ASN A   7       5.619  -4.182  25.643  0.00  0.00    +0.150 HD
BRANCH  15  17
ATOM     17  CA  ASN A   7       6.629  -5.545  26.918  0.00  0.00    +0.168 C 
BRANCH  17  18
ATOM     18  C   ASN A   7       6.003  -5.248  28.293  0.00  0.00    +0.234 C 
ATOM     19  N   ALA A   8       5.007  -4.303  28.289  0.00  0.00    -0.305 N 
ATOM     20  H   ALA A   8       4.695  -3.872  27.423  0.00  0.00    +0.149 HD
ATOM     21  O   ASN A   7       6.352  -5.844  29.312  0.00  0.00    -0.274 OA
BRANCH  19  22
ATOM     22  CA  ALA A   8       4.233  -3.977  29.482  0.00  0.00    +0.133 C 
ATOM     23  CB  ALA A   8       3.879  -2.499  29.547  0.00  0.00    +0.035 C 
BRANCH  22  24
ATOM     24  C   ALA A   8       2.957  -4.805  29.444  0.00  0.00    +0.245 C 
ATOM     25  O   ALA A   8       2.672  -5.642  30.301  0.00  0.00    -0.299 OA
ENDBRANCH  22  24
ENDBRANCH  19  22
ENDBRANCH  17  18
BRANCH  17  26
ATOM     26  CB  ASN A   7       7.931  -4.756  26.786  0.00  0.00    +0.127 C 
BRANCH  26  27
ATOM     27  CG  ASN A   7       8.706  -5.089  25.536  0.00  0.00    +0.213 C 
ATOM     28  OD1 ASN A   7       8.257  -4.909  24.409  0.00  0.00    -0.276 OA
ATOM     29  ND2 ASN A   7       9.963  -5.580  25.719  0.00  0.00    -0.329 N 
ATOM     30 HD21 ASN A   7      10.423  -5.894  24.873  0.00  0.00    +0.145 HD
ATOM     31 HD22 ASN A   7      10.212  -6.085  26.558  0.00  0.00    +0.145 HD
ENDBRANCH  26  27
ENDBRANCH  17  26
ENDBRANCH  15  17
ENDBRANCH  12  13
ENDBRANCH   9  12
ENDBRANCH   6   8
ENDBRANCH   4   6
ENDBRANCH   1   2
BRANCH   1  33
ATOM     32  C   LEU A   3       9.009   1.746  22.587  0.00  0.00    +0.234 C 
ATOM     33  N   GLN A   4       8.325   0.598  22.900  0.00  0.00    -0.302 N 
ATOM     34  H   GLN A   4       7.492   0.629  23.485  0.00  0.00    +0.150 HD
ATOM     35  O   LEU A   3      10.057   1.736  21.938  0.00  0.00    -0.274 OA
BRANCH  32  36
ATOM     36  CA  LEU A   3       8.380   3.045  23.137  0.00  0.00    +0.159 C 
BRANCH  36  39
ATOM     37  C   ARG A   2       5.922   3.406  23.028  0.00  0.00    +0.234 C 
ATOM     38  O   ARG A   2       6.014   4.417  22.335  0.00  0.00    -0.274 OA
ATOM     39  N   LEU A   3       7.008   2.716  23.507  0.00  0.00    -0.302 N 
ATOM     40  H   LEU A   3       6.874   1.835  23.993  0.00  0.00    +0.150 HD
BRANCH  37  41
ATOM     41  CA  ARG A   2       4.562   2.791  23.392  0.00  0.00    +0.159 C 
BRANCH  41  43
ATOM     42  C   VAL A   1       4.890   1.557  25.516  0.00  0.00    +0.231 C 
ATOM     43  N   ARG A   2       4.530   2.701  24.846  0.00  0.00    -0.303 N 
ATOM     44  H   ARG A   2       4.306   3.550  25.360  0.00  0.00    +0.149 HD
ATOM     45  O   VAL A   1       5.154   0.508  24.931  0.00  0.00    -0.274 OA
BRANCH  42  46
ATOM     46  CA  VAL A   1       4.927   1.699  27.058  0.00  0.00    +0.140 C 
BRANCH  46  47
ATOM     47  N   VAL A   1       5.736   0.588  27.600  0.00  0.00    -0.320 NA
ATOM     48  H1  VAL A   1       5.311  -0.297  27.323  0.00  0.00    +0.119 HD
ATOM     49  H2  VAL A   1       6.639   0.599  27.116  0.00  0.00    +0.119 HD
ENDBRANCH  46  47
BRANCH  46  50
ATOM     50  CB  VAL A   1       5.506   3.072  27.480  0.00  0.00    +0.009 C 
ATOM     51  CG2 VAL A   1       5.087   3.464  28.903  0.00  0.00    +0.009 C 
ATOM     52  CG1 VAL A   1       7.039   3.089  27.399  0.00  0.00    +0.009 C 
ENDBRANCH  46  50
ENDBRANCH  42  46
ENDBRANCH  41  43
BRANCH  41  53
ATOM     53  CB  ARG A   2       3.410   3.664  22.872  0.00  0.00    +0.035 C 
BRANCH  53  54
ATOM     54  CG  ARG A   2       2.607   2.998  21.751  0.00  0.00    +0.039 C 
BRANCH  54  55
ATOM     55  CD  ARG A   2       3.147   3.364  20.370  0.00  0.00    +0.196 C 
BRANCH  55  56
ATOM     56  NE  ARG A   2       3.438   2.151  19.589  0.00  0.00    -0.279 N 
ATOM     57  HE  ARG A   2       2.693   1.718  19.048  0.00  0.00    +0.258 HD
ATOM     58  CZ  ARG A   2       4.635   1.552  19.526  0.00  0.00    +0.341 C 
ATOM     59  NH2 ARG A   2       4.773   0.423  18.834  0.00  0.00    -0.292 N 
ATOM     60 HH21 ARG A   2       3.950  -0.074  18.468  0.00  0.00    +0.255 HD
ATOM     61 HH22 ARG A   2       5.659  -0.044  18.724  0.00  0.00    +0.255 HD
ATOM     62  NH1 ARG A   2       5.706   2.052  20.150  0.00  0.00    -0.292 N 
ATOM     63 HH11 ARG A   2       5.647   2.902  20.694  0.00  0.00    +0.255 HD
ATOM     64 HH12 ARG A   2       6.604   1.590  20.105  0.00  0.00    +0.255 HD
ENDBRANCH  55  56
ENDBRANCH  54  55
ENDBRANCH  53  54
ENDBRANCH  41  53
ENDBRANCH  37  41
ENDBRANCH  36  39
BRANCH  36  65
ATOM     65  CB  LEU A   3       9.167   3.576  24.343  0.00  0.00    +0.034 C 
BRANCH  65  66
ATOM     66  CG  LEU A   3       9.835   4.948  24.114  0.00  0.00    -0.015 C 
ATOM     67  CD2 LEU A   3      11.219   4.755  23.488  0.00  0.00    +0.007 C 
ATOM     68  CD1 LEU A   3       8.992   5.859  23.220  0.00  0.00    +0.007 C 
ENDBRANCH  65  66
ENDBRANCH  36  65
ENDBRANCH  32  36
ENDBRANCH   1  33
BRANCH   1  69
ATOM     69  CB  GLN A   4       9.333  -1.510  23.679  0.00  0.00    +0.041 C 
BRANCH  69  70
ATOM     70  CG  GLN A   4       9.579  -0.630  24.901  0.00  0.00    +0.098 C 
BRANCH  70  71
ATOM     71  CD  GLN A   4       8.641  -1.049  26.013  0.00  0.00    +0.211 C 
ATOM     72  OE1 GLN A   4       8.947  -1.010  27.206  0.00  0.00    -0.276 OA
ATOM     73  NE2 GLN A   4       7.387  -1.393  25.610  0.00  0.00    -0.329 N 
ATOM     74 HE21 GLN A   4       7.131  -1.480  24.633  0.00  0.00    +0.145 HD
ATOM     75 HE22 GLN A   4       6.705  -1.694  26.293  0.00  0.00    +0.145 HD
ENDBRANCH  70  71
ENDBRANCH  69  70
ENDBRANCH   1  69
TORSDOF 28
ENDMDL
MODEL 3
REMARK VINA RESULT:      -5.6      2.046      7.761
REMARK  Name = VRLQAGNA-mmff94.pdb
REMARK  34 active torsions:
REMARK  status: ('A' for Active; 'I' for Inactive)
REMARK    1  A    between atoms: _1  and  _2
REMARK    2  A    between atoms: _2  and  _3
REMARK    3  A    between atoms: _2  and  _5
REMARK    4  A    between atoms: _5  and  _6
REMARK    5  A    between atoms: _5  and  _7
REMARK    6  A    between atoms: _17  and  _18
REMARK    7  A    between atoms: _18  and  _19
REMARK    8  A    between atoms: _18  and  _21
REMARK    9  A    between atoms: _21  and  _22
REMARK   10  A    between atoms: _22  and  _23
REMARK   11  A    between atoms: _23  and  _24
REMARK   12  A    between atoms: _41  and  _42
REMARK   13  A    between atoms: _42  and  _43
REMARK   14  A    between atoms: _42  and  _45
REMARK   15  A    between atoms: _45  and  _46
REMARK   16  A    between atoms: _46  and  _47
REMARK   17  A    between atoms: _46  and  _48
REMARK   18  A    between atoms: _60  and  _61
REMARK   19  A    between atoms: _61  and  _62
REMARK   20  A    between atoms: _61  and  _64
REMARK   21  A    between atoms: _64  and  _65
REMARK   22  A    between atoms: _65  and  _66
REMARK   23  A    between atoms: _77  and  _78
REMARK   24  A    between atoms: _78  and  _79
REMARK   25  A    between atoms: _78  and  _81
REMARK   26  A    between atoms: _87  and  _88
REMARK   27  A    between atoms: _88  and  _89
REMARK   28  A    between atoms: _94  and  _95
REMARK   29  A    between atoms: _95  and  _96
REMARK   30  A    between atoms: _95  and  _98
REMARK   31  A    between atoms: _98  and  _99
REMARK   32  A    between atoms: _108  and  _109
REMARK   33  A    between atoms: _109  and  _110
REMARK   34  A    between atoms: _109  and  _112
REMARK                            x       y       z     vdW  Elec       q    Type
REMARK                         _______ _______ _______ _____ _____    ______ ____
ROOT
ATOM      1  CA  GLN A   4       3.907  -4.162  27.640  0.00  0.00    +0.159 C 
ENDROOT
BRANCH   1   2
ATOM      2  C   GLN A   4       3.198  -2.938  28.249  0.00  0.00    +0.234 C 
ATOM      3  O   GLN A   4       2.156  -3.056  28.894  0.00  0.00    -0.274 OA
ATOM      4  N   ALA A   5       3.778  -1.723  27.990  0.00  0.00    -0.303 N 
ATOM      5  H   ALA A   5       4.673  -1.652  27.516  0.00  0.00    +0.149 HD
BRANCH   4   6
ATOM      6  CA  ALA A   5       3.235  -0.472  28.519  0.00  0.00    +0.156 C 
ATOM      7  CB  ALA A   5       4.307   0.337  29.243  0.00  0.00    +0.038 C 
BRANCH   6   8
ATOM      8  C   ALA A   5       2.660   0.331  27.336  0.00  0.00    +0.233 C 
ATOM      9  N   GLY A   6       3.389   1.434  26.975  0.00  0.00    -0.305 N 
ATOM     10  H   GLY A   6       4.203   1.725  27.509  0.00  0.00    +0.149 HD
ATOM     11  O   ALA A   5       1.625  -0.009  26.761  0.00  0.00    -0.274 OA
BRANCH   9  12
ATOM     12  CA  GLY A   6       3.040   2.250  25.826  0.00  0.00    +0.200 C 
BRANCH  12  13
ATOM     13  C   GLY A   6       4.075   3.364  25.667  0.00  0.00    +0.231 C 
ATOM     14  O   GLY A   6       3.756   4.543  25.519  0.00  0.00    -0.274 OA
ATOM     15  N   ASN A   7       5.380   2.942  25.684  0.00  0.00    -0.302 N 
ATOM     16  H   ASN A   7       5.605   1.951  25.743  0.00  0.00    +0.150 HD
BRANCH  15  17
ATOM     17  CA  ASN A   7       6.513   3.865  25.617  0.00  0.00    +0.168 C 
BRANCH  17  18
ATOM     18  C   ASN A   7       7.395   3.406  24.443  0.00  0.00    +0.234 C 
ATOM     19  N   ALA A   8       8.748   3.531  24.646  0.00  0.00    -0.305 N 
ATOM     20  H   ALA A   8       9.118   3.867  25.531  0.00  0.00    +0.149 HD
ATOM     21  O   ASN A   7       6.918   2.931  23.412  0.00  0.00    -0.274 OA
BRANCH  19  22
ATOM     22  CA  ALA A   8       9.732   3.047  23.684  0.00  0.00    +0.133 C 
ATOM     23  CB  ALA A   8      10.937   3.969  23.585  0.00  0.00    +0.035 C 
BRANCH  22  24
ATOM     24  C   ALA A   8      10.182   1.667  24.141  0.00  0.00    +0.245 C 
ATOM     25  O   ALA A   8      10.078   0.659  23.441  0.00  0.00    -0.299 OA
ENDBRANCH  22  24
ENDBRANCH  19  22
ENDBRANCH  17  18
BRANCH  17  26
ATOM     26  CB  ASN A   7       7.348   3.858  26.896  0.00  0.00    +0.127 C 
BRANCH  26  27
ATOM     27  CG  ASN A   7       6.719   3.068  28.016  0.00  0.00    +0.213 C 
ATOM     28  OD1 ASN A   7       5.657   3.388  28.539  0.00  0.00    -0.276 OA
ATOM     29  ND2 ASN A   7       7.383   1.945  28.408  0.00  0.00    -0.329 N 
ATOM     30 HD21 ASN A   7       6.999   1.490  29.228  0.00  0.00    +0.145 HD
ATOM     31 HD22 ASN A   7       8.383   1.861  28.296  0.00  0.00    +0.145 HD
ENDBRANCH  26  27
ENDBRANCH  17  26
ENDBRANCH  15  17
ENDBRANCH  12  13
ENDBRANCH   9  12
ENDBRANCH   6   8
ENDBRANCH   4   6
ENDBRANCH   1   2
BRANCH   1  33
ATOM     32  C   LEU A   3       4.752  -4.696  25.358  0.00  0.00    +0.234 C 
ATOM     33  N   GLN A   4       4.082  -3.863  26.219  0.00  0.00    -0.302 N 
ATOM     34  H   GLN A   4       3.717  -2.966  25.899  0.00  0.00    +0.150 HD
ATOM     35  O   LEU A   3       5.264  -5.756  25.728  0.00  0.00    -0.274 OA
BRANCH  32  36
ATOM     36  CA  LEU A   3       4.841  -4.189  23.902  0.00  0.00    +0.159 C 
BRANCH  36  39
ATOM     37  C   ARG A   2       5.886  -1.991  24.408  0.00  0.00    +0.234 C 
ATOM     38  O   ARG A   2       4.858  -1.514  24.885  0.00  0.00    -0.274 OA
ATOM     39  N   LEU A   3       5.954  -3.247  23.860  0.00  0.00    -0.302 N 
ATOM     40  H   LEU A   3       6.850  -3.625  23.569  0.00  0.00    +0.150 HD
BRANCH  37  41
ATOM     41  CA  ARG A   2       7.217  -1.224  24.419  0.00  0.00    +0.159 C 
BRANCH  41  43
ATOM     42  C   VAL A   1       7.205  -0.509  22.046  0.00  0.00    +0.231 C 
ATOM     43  N   ARG A   2       7.111  -0.206  23.382  0.00  0.00    -0.303 N 
ATOM     44  H   ARG A   2       6.882   0.740  23.681  0.00  0.00    +0.149 HD
ATOM     45  O   VAL A   1       7.493  -1.636  21.646  0.00  0.00    -0.274 OA
BRANCH  42  46
ATOM     46  CA  VAL A   1       6.926   0.681  21.094  0.00  0.00    +0.140 C 
BRANCH  46  47
ATOM     47  N   VAL A   1       8.184   1.438  20.928  0.00  0.00    -0.320 NA
ATOM     48  H1  VAL A   1       8.889   1.050  21.556  0.00  0.00    +0.119 HD
ATOM     49  H2  VAL A   1       8.543   1.237  19.989  0.00  0.00    +0.119 HD
ENDBRANCH  46  47
BRANCH  46  50
ATOM     50  CB  VAL A   1       6.382   0.191  19.729  0.00  0.00    +0.009 C 
ATOM     51  CG2 VAL A   1       5.249   1.083  19.205  0.00  0.00    +0.009 C 
ATOM     52  CG1 VAL A   1       7.489   0.130  18.667  0.00  0.00    +0.009 C 
ENDBRANCH  46  50
ENDBRANCH  42  46
ENDBRANCH  41  43
BRANCH  41  53
ATOM     53  CB  ARG A   2       7.469  -0.585  25.792  0.00  0.00    +0.035 C 
BRANCH  53  54
ATOM     54  CG  ARG A   2       8.709  -1.140  26.498  0.00  0.00    +0.039 C 
BRANCH  54  55
ATOM     55  CD  ARG A   2       9.184  -2.447  25.867  0.00  0.00    +0.196 C 
BRANCH  55  56
ATOM     56  NE  ARG A   2       8.454  -3.593  26.432  0.00  0.00    -0.279 N 
ATOM     57  HE  ARG A   2       7.592  -3.428  26.947  0.00  0.00    +0.258 HD
ATOM     58  CZ  ARG A   2       8.838  -4.872  26.323  0.00  0.00    +0.341 C 
ATOM     59  NH2 ARG A   2       8.133  -5.827  26.924  0.00  0.00    -0.292 N 
ATOM     60 HH21 ARG A   2       7.384  -5.590  27.589  0.00  0.00    +0.255 HD
ATOM     61 HH22 ARG A   2       8.358  -6.806  26.841  0.00  0.00    +0.255 HD
ATOM     62  NH1 ARG A   2       9.925  -5.224  25.628  0.00  0.00    -0.292 N 
ATOM     63 HH11 ARG A   2      10.496  -4.533  25.161  0.00  0.00    +0.255 HD
ATOM     64 HH12 ARG A   2      10.214  -6.190  25.557  0.00  0.00    +0.255 HD
ENDBRANCH  55  56
ENDBRANCH  54  55
ENDBRANCH  53  54
ENDBRANCH  41  53
ENDBRANCH  37  41
ENDBRANCH  36  39
BRANCH  36  65
ATOM     65  CB  LEU A   3       5.059  -5.351  22.922  0.00  0.00    +0.034 C 
BRANCH  65  66
ATOM     66  CG  LEU A   3       6.339  -5.231  22.069  0.00  0.00    -0.015 C 
ATOM     67  CD2 LEU A   3       7.485  -5.995  22.740  0.00  0.00    +0.007 C 
ATOM     68  CD1 LEU A   3       6.137  -5.759  20.647  0.00  0.00    +0.007 C 
ENDBRANCH  65  66
ENDBRANCH  36  65
ENDBRANCH  32  36
ENDBRANCH   1  33
BRANCH   1  69
ATOM     69  CB  GLN A   4       5.267  -4.404  28.309  0.00  0.00    +0.041 C 
BRANCH  69  70
ATOM     70  CG  GLN A   4       5.159  -5.185  29.614  0.00  0.00    +0.098 C 
BRANCH  70  71
ATOM     71  CD  GLN A   4       5.809  -6.541  29.439  0.00  0.00    +0.211 C 
ATOM     72  OE1 GLN A   4       6.670  -6.981  30.202  0.00  0.00    -0.276 OA
ATOM     73  NE2 GLN A   4       5.310  -7.290  28.418  0.00  0.00    -0.329 N 
ATOM     74 HE21 GLN A   4       4.638  -6.929  27.751  0.00  0.00    +0.145 HD
ATOM     75 HE22 GLN A   4       5.699  -8.205  28.230  0.00  0.00    +0.145 HD
ENDBRANCH  70  71
ENDBRANCH  69  70
ENDBRANCH   1  69
TORSDOF 28
ENDMDL
MODEL 4
REMARK VINA RESULT:      -5.6      2.166      6.111
REMARK  Name = VRLQAGNA-mmff94.pdb
REMARK  34 active torsions:
REMARK  status: ('A' for Active; 'I' for Inactive)
REMARK    1  A    between atoms: _1  and  _2
REMARK    2  A    between atoms: _2  and  _3
REMARK    3  A    between atoms: _2  and  _5
REMARK    4  A    between atoms: _5  and  _6
REMARK    5  A    between atoms: _5  and  _7
REMARK    6  A    between atoms: _17  and  _18
REMARK    7  A    between atoms: _18  and  _19
REMARK    8  A    between atoms: _18  and  _21
REMARK    9  A    between atoms: _21  and  _22
REMARK   10  A    between atoms: _22  and  _23
REMARK   11  A    between atoms: _23  and  _24
REMARK   12  A    between atoms: _41  and  _42
REMARK   13  A    between atoms: _42  and  _43
REMARK   14  A    between atoms: _42  and  _45
REMARK   15  A    between atoms: _45  and  _46
REMARK   16  A    between atoms: _46  and  _47
REMARK   17  A    between atoms: _46  and  _48
REMARK   18  A    between atoms: _60  and  _61
REMARK   19  A    between atoms: _61  and  _62
REMARK   20  A    between atoms: _61  and  _64
REMARK   21  A    between atoms: _64  and  _65
REMARK   22  A    between atoms: _65  and  _66
REMARK   23  A    between atoms: _77  and  _78
REMARK   24  A    between atoms: _78  and  _79
REMARK   25  A    between atoms: _78  and  _81
REMARK   26  A    between atoms: _87  and  _88
REMARK   27  A    between atoms: _88  and  _89
REMARK   28  A    between atoms: _94  and  _95
REMARK   29  A    between atoms: _95  and  _96
REMARK   30  A    between atoms: _95  and  _98
REMARK   31  A    between atoms: _98  and  _99
REMARK   32  A    between atoms: _108  and  _109
REMARK   33  A    between atoms: _109  and  _110
REMARK   34  A    between atoms: _109  and  _112
REMARK                            x       y       z     vdW  Elec       q    Type
REMARK                         _______ _______ _______ _____ _____    ______ ____
ROOT
ATOM      1  CA  GLN A   4       7.560  -4.463  26.088  0.00  0.00    +0.159 C 
ENDROOT
BRANCH   1   2
ATOM      2  C   GLN A   4       6.391  -5.204  26.763  0.00  0.00    +0.234 C 
ATOM      3  O   GLN A   4       6.044  -6.326  26.393  0.00  0.00    -0.274 OA
ATOM      4  N   ALA A   5       5.748  -4.520  27.762  0.00  0.00    -0.303 N 
ATOM      5  H   ALA A   5       6.091  -3.625  28.099  0.00  0.00    +0.149 HD
BRANCH   4   6
ATOM      6  CA  ALA A   5       4.635  -5.100  28.512  0.00  0.00    +0.156 C 
ATOM      7  CB  ALA A   5       4.932  -5.136  30.009  0.00  0.00    +0.038 C 
BRANCH   6   8
ATOM      8  C   ALA A   5       3.381  -4.249  28.231  0.00  0.00    +0.233 C 
ATOM      9  N   GLY A   6       3.605  -3.111  27.502  0.00  0.00    -0.305 N 
ATOM     10  H   GLY A   6       4.546  -2.828  27.241  0.00  0.00    +0.149 HD
ATOM     11  O   ALA A   5       2.265  -4.583  28.632  0.00  0.00    -0.274 OA
BRANCH   9  12
ATOM     12  CA  GLY A   6       2.524  -2.242  27.071  0.00  0.00    +0.200 C 
BRANCH  12  13
ATOM     13  C   GLY A   6       3.032  -0.802  27.005  0.00  0.00    +0.231 C 
ATOM     14  O   GLY A   6       2.270   0.164  26.996  0.00  0.00    -0.274 OA
ATOM     15  N   ASN A   7       4.396  -0.676  26.935  0.00  0.00    -0.302 N 
ATOM     16  H   ASN A   7       4.992  -1.499  26.879  0.00  0.00    +0.150 HD
BRANCH  15  17
ATOM     17  CA  ASN A   7       5.074   0.620  26.937  0.00  0.00    +0.168 C 
BRANCH  17  18
ATOM     18  C   ASN A   7       5.086   1.119  25.481  0.00  0.00    +0.234 C 
ATOM     19  N   ALA A   8       4.559   2.373  25.289  0.00  0.00    -0.305 N 
ATOM     20  H   ALA A   8       4.226   2.928  26.073  0.00  0.00    +0.149 HD
ATOM     21  O   ASN A   7       5.567   0.453  24.564  0.00  0.00    -0.274 OA
BRANCH  19  22
ATOM     22  CA  ALA A   8       4.587   3.045  23.996  0.00  0.00    +0.133 C 
ATOM     23  CB  ALA A   8       3.204   3.499  23.556  0.00  0.00    +0.035 C 
BRANCH  22  24
ATOM     24  C   ALA A   8       5.503   4.254  24.124  0.00  0.00    +0.245 C 
ATOM     25  O   ALA A   8       6.234   4.444  25.097  0.00  0.00    -0.299 OA
ENDBRANCH  22  24
ENDBRANCH  19  22
ENDBRANCH  17  18
BRANCH  17  26
ATOM     26  CB  ASN A   7       6.513   0.527  27.440  0.00  0.00    +0.127 C 
BRANCH  26  27
ATOM     27  CG  ASN A   7       6.949   1.737  28.226  0.00  0.00    +0.213 C 
ATOM     28  OD1 ASN A   7       6.620   2.879  27.924  0.00  0.00    -0.276 OA
ATOM     29  ND2 ASN A   7       7.717   1.497  29.326  0.00  0.00    -0.329 N 
ATOM     30 HD21 ASN A   7       8.084   2.327  29.775  0.00  0.00    +0.145 HD
ATOM     31 HD22 ASN A   7       8.304   0.678  29.387  0.00  0.00    +0.145 HD
ENDBRANCH  26  27
ENDBRANCH  17  26
ENDBRANCH  15  17
ENDBRANCH  12  13
ENDBRANCH   9  12
ENDBRANCH   6   8
ENDBRANCH   4   6
ENDBRANCH   1   2
BRANCH   1  33
ATOM     32  C   LEU A   3       6.152  -3.402  24.328  0.00  0.00    +0.234 C 
ATOM     33  N   GLN A   4       7.160  -4.259  24.696  0.00  0.00    -0.302 N 
ATOM     34  H   GLN A   4       7.642  -4.827  24.001  0.00  0.00    +0.150 HD
ATOM     35  O   LEU A   3       5.505  -2.751  25.151  0.00  0.00    -0.274 OA
BRANCH  32  36
ATOM     36  CA  LEU A   3       5.873  -3.344  22.810  0.00  0.00    +0.159 C 
BRANCH  36  39
ATOM     37  C   ARG A   2       7.353  -1.546  21.936  0.00  0.00    +0.234 C 
ATOM     38  O   ARG A   2       8.357  -2.256  21.931  0.00  0.00    -0.274 OA
ATOM     39  N   LEU A   3       6.130  -1.968  22.396  0.00  0.00    -0.302 N 
ATOM     40  H   LEU A   3       5.315  -1.373  22.287  0.00  0.00    +0.150 HD
BRANCH  37  41
ATOM     41  CA  ARG A   2       7.369  -0.113  21.382  0.00  0.00    +0.159 C 
BRANCH  41  43
ATOM     42  C   VAL A   1       8.062   2.043  22.387  0.00  0.00    +0.231 C 
ATOM     43  N   ARG A   2       8.165   0.676  22.313  0.00  0.00    -0.303 N 
ATOM     44  H   ARG A   2       8.751   0.167  22.971  0.00  0.00    +0.149 HD
ATOM     45  O   VAL A   1       7.377   2.695  21.601  0.00  0.00    -0.274 OA
BRANCH  42  46
ATOM     46  CA  VAL A   1       8.883   2.689  23.531  0.00  0.00    +0.140 C 
BRANCH  46  47
ATOM     47  N   VAL A   1       8.414   2.117  24.810  0.00  0.00    -0.320 NA
ATOM     48  H1  VAL A   1       8.927   1.255  24.995  0.00  0.00    +0.119 HD
ATOM     49  H2  VAL A   1       8.707   2.753  25.558  0.00  0.00    +0.119 HD
ENDBRANCH  46  47
BRANCH  46  50
ATOM     50  CB  VAL A   1      10.401   2.451  23.334  0.00  0.00    +0.009 C 
ATOM     51  CG2 VAL A   1      11.215   3.742  23.499  0.00  0.00    +0.009 C 
ATOM     52  CG1 VAL A   1      10.942   1.402  24.316  0.00  0.00    +0.009 C 
ENDBRANCH  46  50
ENDBRANCH  42  46
ENDBRANCH  41  43
BRANCH  41  53
ATOM     53  CB  ARG A   2       7.978  -0.078  19.973  0.00  0.00    +0.035 C 
BRANCH  53  54
ATOM     54  CG  ARG A   2       6.987   0.379  18.899  0.00  0.00    +0.039 C 
BRANCH  54  55
ATOM     55  CD  ARG A   2       5.582  -0.161  19.155  0.00  0.00    +0.196 C 
BRANCH  55  56
ATOM     56  NE  ARG A   2       4.565   0.804  18.706  0.00  0.00    -0.279 N 
ATOM     57  HE  ARG A   2       4.082   0.643  17.825  0.00  0.00    +0.258 HD
ATOM     58  CZ  ARG A   2       4.211   1.908  19.378  0.00  0.00    +0.341 C 
ATOM     59  NH2 ARG A   2       3.320   2.745  18.851  0.00  0.00    -0.292 N 
ATOM     60 HH21 ARG A   2       3.007   2.636  17.877  0.00  0.00    +0.255 HD
ATOM     61 HH22 ARG A   2       2.992   3.567  19.333  0.00  0.00    +0.255 HD
ATOM     62  NH1 ARG A   2       4.734   2.204  20.572  0.00  0.00    -0.292 N 
ATOM     63 HH11 ARG A   2       5.420   1.603  21.008  0.00  0.00    +0.255 HD
ATOM     64 HH12 ARG A   2       4.469   3.042  21.069  0.00  0.00    +0.255 HD
ENDBRANCH  55  56
ENDBRANCH  54  55
ENDBRANCH  53  54
ENDBRANCH  41  53
ENDBRANCH  37  41
ENDBRANCH  36  39
BRANCH  36  65
ATOM     65  CB  LEU A   3       6.765  -4.329  22.042  0.00  0.00    +0.034 C 
BRANCH  65  66
ATOM     66  CG  LEU A   3       6.149  -5.730  21.851  0.00  0.00    -0.015 C 
ATOM     67  CD2 LEU A   3       4.758  -5.778  22.490  0.00  0.00    +0.007 C 
ATOM     68  CD1 LEU A   3       6.047  -6.121  20.375  0.00  0.00    +0.007 C 
ENDBRANCH  65  66
ENDBRANCH  36  65
ENDBRANCH  32  36
ENDBRANCH   1  33
BRANCH   1  69
ATOM     69  CB  GLN A   4       7.830  -3.115  26.772  0.00  0.00    +0.041 C 
BRANCH  69  70
ATOM     70  CG  GLN A   4       9.214  -2.555  26.462  0.00  0.00    +0.098 C 
BRANCH  70  71
ATOM     71  CD  GLN A   4       9.146  -1.730  25.195  0.00  0.00    +0.211 C 
ATOM     72  OE1 GLN A   4       8.440  -0.728  25.077  0.00  0.00    -0.276 OA
ATOM     73  NE2 GLN A   4       9.996  -2.124  24.206  0.00  0.00    -0.329 N 
ATOM     74 HE21 GLN A   4      10.547  -2.972  24.264  0.00  0.00    +0.145 HD
ATOM     75 HE22 GLN A   4      10.003  -1.629  23.324  0.00  0.00    +0.145 HD
ENDBRANCH  70  71
ENDBRANCH  69  70
ENDBRANCH   1  69
TORSDOF 28
ENDMDL
MODEL 5
REMARK VINA RESULT:      -5.6      1.956      6.798
REMARK  Name = VRLQAGNA-mmff94.pdb
REMARK  34 active torsions:
REMARK  status: ('A' for Active; 'I' for Inactive)
REMARK    1  A    between atoms: _1  and  _2
REMARK    2  A    between atoms: _2  and  _3
REMARK    3  A    between atoms: _2  and  _5
REMARK    4  A    between atoms: _5  and  _6
REMARK    5  A    between atoms: _5  and  _7
REMARK    6  A    between atoms: _17  and  _18
REMARK    7  A    between atoms: _18  and  _19
REMARK    8  A    between atoms: _18  and  _21
REMARK    9  A    between atoms: _21  and  _22
REMARK   10  A    between atoms: _22  and  _23
REMARK   11  A    between atoms: _23  and  _24
REMARK   12  A    between atoms: _41  and  _42
REMARK   13  A    between atoms: _42  and  _43
REMARK   14  A    between atoms: _42  and  _45
REMARK   15  A    between atoms: _45  and  _46
REMARK   16  A    between atoms: _46  and  _47
REMARK   17  A    between atoms: _46  and  _48
REMARK   18  A    between atoms: _60  and  _61
REMARK   19  A    between atoms: _61  and  _62
REMARK   20  A    between atoms: _61  and  _64
REMARK   21  A    between atoms: _64  and  _65
REMARK   22  A    between atoms: _65  and  _66
REMARK   23  A    between atoms: _77  and  _78
REMARK   24  A    between atoms: _78  and  _79
REMARK   25  A    between atoms: _78  and  _81
REMARK   26  A    between atoms: _87  and  _88
REMARK   27  A    between atoms: _88  and  _89
REMARK   28  A    between atoms: _94  and  _95
REMARK   29  A    between atoms: _95  and  _96
REMARK   30  A    between atoms: _95  and  _98
REMARK   31  A    between atoms: _98  and  _99
REMARK   32  A    between atoms: _108  and  _109
REMARK   33  A    between atoms: _109  and  _110
REMARK   34  A    between atoms: _109  and  _112
REMARK                            x       y       z     vdW  Elec       q    Type
REMARK                         _______ _______ _______ _____ _____    ______ ____
ROOT
ATOM      1  CA  GLN A   4       6.731   3.128  22.843  0.00  0.00    +0.159 C 
ENDROOT
BRANCH   1   2
ATOM      2  C   GLN A   4       6.255   2.226  21.689  0.00  0.00    +0.234 C 
ATOM      3  O   GLN A   4       5.316   2.556  20.964  0.00  0.00    -0.274 OA
ATOM      4  N   ALA A   5       6.913   1.031  21.555  0.00  0.00    -0.303 N 
ATOM      5  H   ALA A   5       7.728   0.808  22.118  0.00  0.00    +0.149 HD
BRANCH   4   6
ATOM      6  CA  ALA A   5       6.590   0.079  20.492  0.00  0.00    +0.156 C 
ATOM      7  CB  ALA A   5       7.430   0.334  19.244  0.00  0.00    +0.038 C 
BRANCH   6   8
ATOM      8  C   ALA A   5       6.848  -1.340  21.036  0.00  0.00    +0.233 C 
ATOM      9  N   GLY A   6       5.787  -2.200  20.937  0.00  0.00    -0.305 N 
ATOM     10  H   GLY A   6       4.881  -1.884  20.597  0.00  0.00    +0.149 HD
ATOM     11  O   ALA A   5       7.936  -1.666  21.513  0.00  0.00    -0.274 OA
BRANCH   9  12
ATOM     12  CA  GLY A   6       5.884  -3.598  21.316  0.00  0.00    +0.200 C 
BRANCH  12  13
ATOM     13  C   GLY A   6       5.360  -3.771  22.742  0.00  0.00    +0.231 C 
ATOM     14  O   GLY A   6       5.192  -2.817  23.501  0.00  0.00    -0.274 OA
ATOM     15  N   ASN A   7       5.112  -5.069  23.109  0.00  0.00    -0.302 N 
ATOM     16  H   ASN A   7       5.324  -5.837  22.477  0.00  0.00    +0.150 HD
BRANCH  15  17
ATOM     17  CA  ASN A   7       4.540  -5.430  24.406  0.00  0.00    +0.168 C 
BRANCH  17  18
ATOM     18  C   ASN A   7       5.713  -5.847  25.311  0.00  0.00    +0.234 C 
ATOM     19  N   ALA A   8       6.882  -5.157  25.107  0.00  0.00    -0.305 N 
ATOM     20  H   ALA A   8       6.935  -4.402  24.428  0.00  0.00    +0.149 HD
ATOM     21  O   ASN A   7       5.595  -6.714  26.178  0.00  0.00    -0.274 OA
BRANCH  19  22
ATOM     22  CA  ALA A   8       8.061  -5.346  25.945  0.00  0.00    +0.133 C 
ATOM     23  CB  ALA A   8       9.305  -5.648  25.124  0.00  0.00    +0.035 C 
BRANCH  22  24
ATOM     24  C   ALA A   8       8.272  -4.065  26.739  0.00  0.00    +0.245 C 
ATOM     25  O   ALA A   8       7.386  -3.229  26.917  0.00  0.00    -0.299 OA
ENDBRANCH  22  24
ENDBRANCH  19  22
ENDBRANCH  17  18
BRANCH  17  26
ATOM     26  CB  ASN A   7       3.554  -6.592  24.307  0.00  0.00    +0.127 C 
BRANCH  26  27
ATOM     27  CG  ASN A   7       2.545  -6.425  23.199  0.00  0.00    +0.213 C 
ATOM     28  OD1 ASN A   7       2.143  -5.328  22.827  0.00  0.00    -0.276 OA
ATOM     29  ND2 ASN A   7       2.112  -7.570  22.600  0.00  0.00    -0.329 N 
ATOM     30 HD21 ASN A   7       1.360  -7.441  21.934  0.00  0.00    +0.145 HD
ATOM     31 HD22 ASN A   7       2.105  -8.451  23.094  0.00  0.00    +0.145 HD
ENDBRANCH  26  27
ENDBRANCH  17  26
ENDBRANCH  15  17
ENDBRANCH  12  13
ENDBRANCH   9  12
ENDBRANCH   6   8
ENDBRANCH   4   6
ENDBRANCH   1   2
BRANCH   1  33
ATOM     32  C   LEU A   3       5.212   3.685  24.736  0.00  0.00    +0.234 C 
ATOM     33  N   GLN A   4       5.918   2.764  24.003  0.00  0.00    -0.302 N 
ATOM     34  H   GLN A   4       5.936   1.782  24.275  0.00  0.00    +0.150 HD
ATOM     35  O   LEU A   3       5.224   4.890  24.473  0.00  0.00    -0.274 OA
BRANCH  32  36
ATOM     36  CA  LEU A   3       4.430   3.099  25.932  0.00  0.00    +0.159 C 
BRANCH  36  39
ATOM     37  C   ARG A   2       4.122   0.695  26.489  0.00  0.00    +0.234 C 
ATOM     38  O   ARG A   2       2.933   0.824  26.776  0.00  0.00    -0.274 OA
ATOM     39  N   LEU A   3       4.932   1.743  26.130  0.00  0.00    -0.302 N 
ATOM     40  H   LEU A   3       5.879   1.565  25.811  0.00  0.00    +0.150 HD
BRANCH  37  41
ATOM     41  CA  ARG A   2       4.808  -0.680  26.470  0.00  0.00    +0.159 C 
BRANCH  41  43
ATOM     42  C   VAL A   1       7.016  -0.147  25.479  0.00  0.00    +0.231 C 
ATOM     43  N   ARG A   2       6.238  -0.425  26.577  0.00  0.00    -0.303 N 
ATOM     44  H   ARG A   2       6.634  -0.380  27.513  0.00  0.00    +0.149 HD
ATOM     45  O   VAL A   1       6.578  -0.204  24.332  0.00  0.00    -0.274 OA
BRANCH  42  46
ATOM     46  CA  VAL A   1       8.480   0.235  25.809  0.00  0.00    +0.140 C 
BRANCH  46  47
ATOM     47  N   VAL A   1       8.868  -0.468  27.050  0.00  0.00    -0.320 NA
ATOM     48  H1  VAL A   1       8.399  -1.374  27.077  0.00  0.00    +0.119 HD
ATOM     49  H2  VAL A   1       9.863  -0.698  26.976  0.00  0.00    +0.119 HD
ENDBRANCH  46  47
BRANCH  46  50
ATOM     50  CB  VAL A   1       9.430  -0.129  24.640  0.00  0.00    +0.009 C 
ATOM     51  CG2 VAL A   1      10.801   0.548  24.777  0.00  0.00    +0.009 C 
ATOM     52  CG1 VAL A   1       9.640  -1.645  24.532  0.00  0.00    +0.009 C 
ENDBRANCH  46  50
ENDBRANCH  42  46
ENDBRANCH  41  43
BRANCH  41  53
ATOM     53  CB  ARG A   2       4.317  -1.553  27.634  0.00  0.00    +0.035 C 
BRANCH  53  54
ATOM     54  CG  ARG A   2       4.199  -3.035  27.270  0.00  0.00    +0.039 C 
BRANCH  54  55
ATOM     55  CD  ARG A   2       4.117  -3.921  28.511  0.00  0.00    +0.196 C 
BRANCH  55  56
ATOM     56  NE  ARG A   2       5.349  -4.709  28.669  0.00  0.00    -0.279 N 
ATOM     57  HE  ARG A   2       6.251  -4.251  28.555  0.00  0.00    +0.258 HD
ATOM     58  CZ  ARG A   2       5.387  -6.017  28.959  0.00  0.00    +0.341 C 
ATOM     59  NH2 ARG A   2       6.558  -6.646  29.022  0.00  0.00    -0.292 N 
ATOM     60 HH21 ARG A   2       7.422  -6.183  28.709  0.00  0.00    +0.255 HD
ATOM     61 HH22 ARG A   2       6.642  -7.619  29.274  0.00  0.00    +0.255 HD
ATOM     62  NH1 ARG A   2       4.273  -6.720  29.185  0.00  0.00    -0.292 N 
ATOM     63 HH11 ARG A   2       3.361  -6.287  29.141  0.00  0.00    +0.255 HD
ATOM     64 HH12 ARG A   2       4.308  -7.708  29.395  0.00  0.00    +0.255 HD
ENDBRANCH  55  56
ENDBRANCH  54  55
ENDBRANCH  53  54
ENDBRANCH  41  53
ENDBRANCH  37  41
ENDBRANCH  36  39
BRANCH  36  65
ATOM     65  CB  LEU A   3       4.623   3.951  27.194  0.00  0.00    +0.034 C 
BRANCH  65  66
ATOM     66  CG  LEU A   3       5.874   3.589  28.021  0.00  0.00    -0.015 C 
ATOM     67  CD2 LEU A   3       6.973   4.628  27.785  0.00  0.00    +0.007 C 
ATOM     68  CD1 LEU A   3       5.570   3.499  29.518  0.00  0.00    +0.007 C 
ENDBRANCH  65  66
ENDBRANCH  36  65
ENDBRANCH  32  36
ENDBRANCH   1  33
BRANCH   1  69
ATOM     69  CB  GLN A   4       8.220   2.906  23.140  0.00  0.00    +0.041 C 
BRANCH  69  70
ATOM     70  CG  GLN A   4       8.793   3.926  24.119  0.00  0.00    +0.098 C 
BRANCH  70  71
ATOM     71  CD  GLN A   4      10.149   4.382  23.626  0.00  0.00    +0.211 C 
ATOM     72  OE1 GLN A   4      11.064   3.606  23.349  0.00  0.00    -0.276 OA
ATOM     73  NE2 GLN A   4      10.267   5.724  23.424  0.00  0.00    -0.329 N 
ATOM     74 HE21 GLN A   4       9.545   6.383  23.692  0.00  0.00    +0.145 HD
ATOM     75 HE22 GLN A   4      11.146   6.108  23.105  0.00  0.00    +0.145 HD
ENDBRANCH  70  71
ENDBRANCH  69  70
ENDBRANCH   1  69
TORSDOF 28
ENDMDL
MODEL 6
REMARK VINA RESULT:      -5.6      2.033      7.312
REMARK  Name = VRLQAGNA-mmff94.pdb
REMARK  34 active torsions:
REMARK  status: ('A' for Active; 'I' for Inactive)
REMARK    1  A    between atoms: _1  and  _2
REMARK    2  A    between atoms: _2  and  _3
REMARK    3  A    between atoms: _2  and  _5
REMARK    4  A    between atoms: _5  and  _6
REMARK    5  A    between atoms: _5  and  _7
REMARK    6  A    between atoms: _17  and  _18
REMARK    7  A    between atoms: _18  and  _19
REMARK    8  A    between atoms: _18  and  _21
REMARK    9  A    between atoms: _21  and  _22
REMARK   10  A    between atoms: _22  and  _23
REMARK   11  A    between atoms: _23  and  _24
REMARK   12  A    between atoms: _41  and  _42
REMARK   13  A    between atoms: _42  and  _43
REMARK   14  A    between atoms: _42  and  _45
REMARK   15  A    between atoms: _45  and  _46
REMARK   16  A    between atoms: _46  and  _47
REMARK   17  A    between atoms: _46  and  _48
REMARK   18  A    between atoms: _60  and  _61
REMARK   19  A    between atoms: _61  and  _62
REMARK   20  A    between atoms: _61  and  _64
REMARK   21  A    between atoms: _64  and  _65
REMARK   22  A    between atoms: _65  and  _66
REMARK   23  A    between atoms: _77  and  _78
REMARK   24  A    between atoms: _78  and  _79
REMARK   25  A    between atoms: _78  and  _81
REMARK   26  A    between atoms: _87  and  _88
REMARK   27  A    between atoms: _88  and  _89
REMARK   28  A    between atoms: _94  and  _95
REMARK   29  A    between atoms: _95  and  _96
REMARK   30  A    between atoms: _95  and  _98
REMARK   31  A    between atoms: _98  and  _99
REMARK   32  A    between atoms: _108  and  _109
REMARK   33  A    between atoms: _109  and  _110
REMARK   34  A    between atoms: _109  and  _112
REMARK                            x       y       z     vdW  Elec       q    Type
REMARK                         _______ _______ _______ _____ _____    ______ ____
ROOT
ATOM      1  CA  GLN A   4       3.628  -4.557  23.681  0.00  0.00    +0.159 C 
ENDROOT
BRANCH   1   2
ATOM      2  C   GLN A   4       3.075  -4.254  25.086  0.00  0.00    +0.234 C 
ATOM      3  O   GLN A   4       1.915  -4.528  25.391  0.00  0.00    -0.274 OA
ATOM      4  N   ALA A   5       3.942  -3.629  25.946  0.00  0.00    -0.303 N 
ATOM      5  H   ALA A   5       4.915  -3.474  25.699  0.00  0.00    +0.149 HD
BRANCH   4   6
ATOM      6  CA  ALA A   5       3.571  -3.297  27.321  0.00  0.00    +0.156 C 
ATOM      7  CB  ALA A   5       4.614  -3.801  28.315  0.00  0.00    +0.038 C 
BRANCH   6   8
ATOM      8  C   ALA A   5       3.430  -1.766  27.416  0.00  0.00    +0.233 C 
ATOM      9  N   GLY A   6       3.409  -1.263  28.691  0.00  0.00    -0.305 N 
ATOM     10  H   GLY A   6       3.410  -1.879  29.500  0.00  0.00    +0.149 HD
ATOM     11  O   ALA A   5       3.353  -1.056  26.412  0.00  0.00    -0.274 OA
BRANCH   9  12
ATOM     12  CA  GLY A   6       3.373   0.162  28.961  0.00  0.00    +0.200 C 
BRANCH  12  13
ATOM     13  C   GLY A   6       4.802   0.706  28.991  0.00  0.00    +0.231 C 
ATOM     14  O   GLY A   6       5.483   0.710  30.015  0.00  0.00    -0.274 OA
ATOM     15  N   ASN A   7       5.252   1.203  27.794  0.00  0.00    -0.302 N 
ATOM     16  H   ASN A   7       4.638   1.243  26.984  0.00  0.00    +0.150 HD
BRANCH  15  17
ATOM     17  CA  ASN A   7       6.614   1.701  27.605  0.00  0.00    +0.168 C 
BRANCH  17  18
ATOM     18  C   ASN A   7       6.501   3.200  27.276  0.00  0.00    +0.234 C 
ATOM     19  N   ALA A   8       5.378   3.560  26.574  0.00  0.00    -0.305 N 
ATOM     20  H   ALA A   8       4.666   2.875  26.333  0.00  0.00    +0.149 HD
ATOM     21  O   ASN A   7       7.343   4.017  27.649  0.00  0.00    -0.274 OA
BRANCH  19  22
ATOM     22  CA  ALA A   8       5.056   4.950  26.271  0.00  0.00    +0.133 C 
ATOM     23  CB  ALA A   8       4.696   5.148  24.807  0.00  0.00    +0.035 C 
BRANCH  22  24
ATOM     24  C   ALA A   8       3.876   5.351  27.144  0.00  0.00    +0.245 C 
ATOM     25  O   ALA A   8       3.498   4.688  28.111  0.00  0.00    -0.299 OA
ENDBRANCH  22  24
ENDBRANCH  19  22
ENDBRANCH  17  18
BRANCH  17  26
ATOM     26  CB  ASN A   7       7.340   0.996  26.461  0.00  0.00    +0.127 C 
BRANCH  26  27
ATOM     27  CG  ASN A   7       6.739  -0.340  26.105  0.00  0.00    +0.213 C 
ATOM     28  OD1 ASN A   7       6.866  -1.334  26.811  0.00  0.00    -0.276 OA
ATOM     29  ND2 ASN A   7       6.009  -0.385  24.956  0.00  0.00    -0.329 N 
ATOM     30 HD21 ASN A   7       5.704  -1.312  24.684  0.00  0.00    +0.145 HD
ATOM     31 HD22 ASN A   7       6.192   0.250  24.192  0.00  0.00    +0.145 HD
ENDBRANCH  26  27
ENDBRANCH  17  26
ENDBRANCH  15  17
ENDBRANCH  12  13
ENDBRANCH   9  12
ENDBRANCH   6   8
ENDBRANCH   4   6
ENDBRANCH   1   2
BRANCH   1  33
ATOM     32  C   LEU A   3       5.820  -4.140  22.574  0.00  0.00    +0.234 C 
ATOM     33  N   GLN A   4       4.973  -3.985  23.643  0.00  0.00    -0.302 N 
ATOM     34  H   GLN A   4       5.277  -3.494  24.483  0.00  0.00    +0.150 HD
ATOM     35  O   LEU A   3       5.507  -4.786  21.571  0.00  0.00    -0.274 OA
BRANCH  32  36
ATOM     36  CA  LEU A   3       7.202  -3.472  22.739  0.00  0.00    +0.159 C 
BRANCH  36  39
ATOM     37  C   ARG A   2       8.149  -1.371  21.804  0.00  0.00    +0.234 C 
ATOM     38  O   ARG A   2       9.316  -1.734  21.940  0.00  0.00    -0.274 OA
ATOM     39  N   LEU A   3       7.071  -2.117  22.214  0.00  0.00    -0.302 N 
ATOM     40  H   LEU A   3       6.130  -1.812  21.990  0.00  0.00    +0.150 HD
BRANCH  37  41
ATOM     41  CA  ARG A   2       7.785  -0.045  21.117  0.00  0.00    +0.159 C 
BRANCH  41  43
ATOM     42  C   VAL A   1       7.899   1.759  22.812  0.00  0.00    +0.231 C 
ATOM     43  N   ARG A   2       8.500   0.999  21.839  0.00  0.00    -0.303 N 
ATOM     44  H   ARG A   2       9.496   1.095  21.652  0.00  0.00    +0.149 HD
ATOM     45  O   VAL A   1       6.697   1.682  23.057  0.00  0.00    -0.274 OA
BRANCH  42  46
ATOM     46  CA  VAL A   1       8.856   2.718  23.562  0.00  0.00    +0.140 C 
BRANCH  46  47
ATOM     47  N   VAL A   1      10.052   2.924  22.718  0.00  0.00    -0.320 NA
ATOM     48  H1  VAL A   1      10.776   2.265  23.003  0.00  0.00    +0.119 HD
ATOM     49  H2  VAL A   1       9.809   2.638  21.765  0.00  0.00    +0.119 HD
ENDBRANCH  46  47
BRANCH  46  50
ATOM     50  CB  VAL A   1       8.160   4.064  23.886  0.00  0.00    +0.009 C 
ATOM     51  CG2 VAL A   1       9.085   5.025  24.646  0.00  0.00    +0.009 C 
ATOM     52  CG1 VAL A   1       7.664   4.765  22.614  0.00  0.00    +0.009 C 
ENDBRANCH  46  50
ENDBRANCH  42  46
ENDBRANCH  41  43
BRANCH  41  53
ATOM     53  CB  ARG A   2       8.193  -0.067  19.637  0.00  0.00    +0.035 C 
BRANCH  53  54
ATOM     54  CG  ARG A   2       7.050   0.308  18.690  0.00  0.00    +0.039 C 
BRANCH  54  55
ATOM     55  CD  ARG A   2       5.703  -0.202  19.196  0.00  0.00    +0.196 C 
BRANCH  55  56
ATOM     56  NE  ARG A   2       4.621   0.720  18.813  0.00  0.00    -0.279 N 
ATOM     57  HE  ARG A   2       4.028   0.488  18.020  0.00  0.00    +0.258 HD
ATOM     58  CZ  ARG A   2       4.343   1.872  19.439  0.00  0.00    +0.341 C 
ATOM     59  NH2 ARG A   2       3.378   2.660  18.972  0.00  0.00    -0.292 N 
ATOM     60 HH21 ARG A   2       2.940   2.474  18.060  0.00  0.00    +0.255 HD
ATOM     61 HH22 ARG A   2       3.104   3.517  19.428  0.00  0.00    +0.255 HD
ATOM     62  NH1 ARG A   2       5.016   2.263  20.526  0.00  0.00    -0.292 N 
ATOM     63 HH11 ARG A   2       5.762   1.701  20.911  0.00  0.00    +0.255 HD
ATOM     64 HH12 ARG A   2       4.807   3.137  20.987  0.00  0.00    +0.255 HD
ENDBRANCH  55  56
ENDBRANCH  54  55
ENDBRANCH  53  54
ENDBRANCH  41  53
ENDBRANCH  37  41
ENDBRANCH  36  39
BRANCH  36  65
ATOM     65  CB  LEU A   3       7.640  -3.456  24.211  0.00  0.00    +0.034 C 
BRANCH  65  66
ATOM     66  CG  LEU A   3       8.155  -4.811  24.737  0.00  0.00    -0.015 C 
ATOM     67  CD2 LEU A   3       9.637  -4.697  25.105  0.00  0.00    +0.007 C 
ATOM     68  CD1 LEU A   3       7.363  -5.299  25.951  0.00  0.00    +0.007 C 
ENDBRANCH  65  66
ENDBRANCH  36  65
ENDBRANCH  32  36
ENDBRANCH   1  33
BRANCH   1  69
ATOM     69  CB  GLN A   4       3.680  -6.069  23.422  0.00  0.00    +0.041 C 
BRANCH  69  70
ATOM     70  CG  GLN A   4       4.311  -6.850  24.570  0.00  0.00    +0.098 C 
BRANCH  70  71
ATOM     71  CD  GLN A   4       3.258  -7.722  25.218  0.00  0.00    +0.211 C 
ATOM     72  OE1 GLN A   4       2.729  -8.679  24.649  0.00  0.00    -0.276 OA
ATOM     73  NE2 GLN A   4       2.991  -7.431  26.520  0.00  0.00    -0.329 N 
ATOM     74 HE21 GLN A   4       3.377  -6.620  26.990  0.00  0.00    +0.145 HD
ATOM     75 HE22 GLN A   4       2.291  -7.963  27.020  0.00  0.00    +0.145 HD
ENDBRANCH  70  71
ENDBRANCH  69  70
ENDBRANCH   1  69
TORSDOF 28
ENDMDL
MODEL 7
REMARK VINA RESULT:      -5.5      2.256      6.196
REMARK  Name = VRLQAGNA-mmff94.pdb
REMARK  34 active torsions:
REMARK  status: ('A' for Active; 'I' for Inactive)
REMARK    1  A    between atoms: _1  and  _2
REMARK    2  A    between atoms: _2  and  _3
REMARK    3  A    between atoms: _2  and  _5
REMARK    4  A    between atoms: _5  and  _6
REMARK    5  A    between atoms: _5  and  _7
REMARK    6  A    between atoms: _17  and  _18
REMARK    7  A    between atoms: _18  and  _19
REMARK    8  A    between atoms: _18  and  _21
REMARK    9  A    between atoms: _21  and  _22
REMARK   10  A    between atoms: _22  and  _23
REMARK   11  A    between atoms: _23  and  _24
REMARK   12  A    between atoms: _41  and  _42
REMARK   13  A    between atoms: _42  and  _43
REMARK   14  A    between atoms: _42  and  _45
REMARK   15  A    between atoms: _45  and  _46
REMARK   16  A    between atoms: _46  and  _47
REMARK   17  A    between atoms: _46  and  _48
REMARK   18  A    between atoms: _60  and  _61
REMARK   19  A    between atoms: _61  and  _62
REMARK   20  A    between atoms: _61  and  _64
REMARK   21  A    between atoms: _64  and  _65
REMARK   22  A    between atoms: _65  and  _66
REMARK   23  A    between atoms: _77  and  _78
REMARK   24  A    between atoms: _78  and  _79
REMARK   25  A    between atoms: _78  and  _81
REMARK   26  A    between atoms: _87  and  _88
REMARK   27  A    between atoms: _88  and  _89
REMARK   28  A    between atoms: _94  and  _95
REMARK   29  A    between atoms: _95  and  _96
REMARK   30  A    between atoms: _95  and  _98
REMARK   31  A    between atoms: _98  and  _99
REMARK   32  A    between atoms: _108  and  _109
REMARK   33  A    between atoms: _109  and  _110
REMARK   34  A    between atoms: _109  and  _112
REMARK                            x       y       z     vdW  Elec       q    Type
REMARK                         _______ _______ _______ _____ _____    ______ ____
ROOT
ATOM      1  CA  GLN A   4       8.572  -0.743  25.715  0.00  0.00    +0.159 C 
ENDROOT
BRANCH   1   2
ATOM      2  C   GLN A   4       8.950   0.342  24.689  0.00  0.00    +0.234 C 
ATOM      3  O   GLN A   4       9.861   1.140  24.906  0.00  0.00    -0.274 OA
ATOM      4  N   ALA A   5       8.185   0.380  23.552  0.00  0.00    -0.303 N 
ATOM      5  H   ALA A   5       7.484  -0.329  23.360  0.00  0.00    +0.149 HD
BRANCH   4   6
ATOM      6  CA  ALA A   5       8.436   1.339  22.475  0.00  0.00    +0.156 C 
ATOM      7  CB  ALA A   5       9.833   1.159  21.888  0.00  0.00    +0.038 C 
BRANCH   6   8
ATOM      8  C   ALA A   5       7.363   1.123  21.391  0.00  0.00    +0.233 C 
ATOM      9  N   GLY A   6       7.442  -0.073  20.726  0.00  0.00    -0.305 N 
ATOM     10  H   GLY A   6       8.206  -0.722  20.898  0.00  0.00    +0.149 HD
ATOM     11  O   ALA A   5       6.497   1.967  21.155  0.00  0.00    -0.274 OA
BRANCH   9  12
ATOM     12  CA  GLY A   6       6.458  -0.477  19.739  0.00  0.00    +0.200 C 
BRANCH  12  13
ATOM     13  C   GLY A   6       5.889  -1.843  20.124  0.00  0.00    +0.231 C 
ATOM     14  O   GLY A   6       5.386  -2.603  19.297  0.00  0.00    -0.274 OA
ATOM     15  N   ASN A   7       5.968  -2.142  21.460  0.00  0.00    -0.302 N 
ATOM     16  H   ASN A   7       6.331  -1.462  22.124  0.00  0.00    +0.150 HD
BRANCH  15  17
ATOM     17  CA  ASN A   7       5.543  -3.428  22.011  0.00  0.00    +0.168 C 
BRANCH  17  18
ATOM     18  C   ASN A   7       5.136  -3.176  23.474  0.00  0.00    +0.234 C 
ATOM     19  N   ALA A   8       4.357  -4.155  24.040  0.00  0.00    -0.305 N 
ATOM     20  H   ALA A   8       4.112  -4.996  23.524  0.00  0.00    +0.149 HD
ATOM     21  O   ASN A   7       5.514  -2.183  24.097  0.00  0.00    -0.274 OA
BRANCH  19  22
ATOM     22  CA  ALA A   8       3.970  -4.132  25.446  0.00  0.00    +0.133 C 
ATOM     23  CB  ALA A   8       2.461  -4.183  25.625  0.00  0.00    +0.035 C 
BRANCH  22  24
ATOM     24  C   ALA A   8       4.604  -5.342  26.118  0.00  0.00    +0.245 C 
ATOM     25  O   ALA A   8       5.700  -5.304  26.678  0.00  0.00    -0.299 OA
ENDBRANCH  22  24
ENDBRANCH  19  22
ENDBRANCH  17  18
BRANCH  17  26
ATOM     26  CB  ASN A   7       6.655  -4.474  21.980  0.00  0.00    +0.127 C 
BRANCH  26  27
ATOM     27  CG  ASN A   7       6.265  -5.739  21.258  0.00  0.00    +0.213 C 
ATOM     28  OD1 ASN A   7       5.980  -5.762  20.066  0.00  0.00    -0.276 OA
ATOM     29  ND2 ASN A   7       6.272  -6.882  21.999  0.00  0.00    -0.329 N 
ATOM     30 HD21 ASN A   7       5.907  -7.698  21.523  0.00  0.00    +0.145 HD
ATOM     31 HD22 ASN A   7       6.120  -6.861  22.998  0.00  0.00    +0.145 HD
ENDBRANCH  26  27
ENDBRANCH  17  26
ENDBRANCH  15  17
ENDBRANCH  12  13
ENDBRANCH   9  12
ENDBRANCH   6   8
ENDBRANCH   4   6
ENDBRANCH   1   2
BRANCH   1  33
ATOM     32  C   LEU A   3       6.766   0.180  27.161  0.00  0.00    +0.234 C 
ATOM     33  N   GLN A   4       7.166  -0.513  26.046  0.00  0.00    -0.302 N 
ATOM     34  H   GLN A   4       6.481  -0.940  25.422  0.00  0.00    +0.150 HD
ATOM     35  O   LEU A   3       7.569   0.650  27.970  0.00  0.00    -0.274 OA
BRANCH  32  36
ATOM     36  CA  LEU A   3       5.236   0.297  27.338  0.00  0.00    +0.159 C 
BRANCH  36  39
ATOM     37  C   ARG A   2       4.526   2.597  26.714  0.00  0.00    +0.234 C 
ATOM     38  O   ARG A   2       4.552   3.012  27.871  0.00  0.00    -0.274 OA
ATOM     39  N   LEU A   3       4.784   1.292  26.372  0.00  0.00    -0.302 N 
ATOM     40  H   LEU A   3       4.842   1.027  25.394  0.00  0.00    +0.150 HD
BRANCH  37  41
ATOM     41  CA  ARG A   2       4.236   3.525  25.525  0.00  0.00    +0.159 C 
BRANCH  41  43
ATOM     42  C   VAL A   1       6.605   4.212  25.282  0.00  0.00    +0.231 C 
ATOM     43  N   ARG A   2       5.291   4.530  25.526  0.00  0.00    -0.303 N 
ATOM     44  H   ARG A   2       5.008   5.502  25.636  0.00  0.00    +0.149 HD
ATOM     45  O   VAL A   1       6.988   3.051  25.158  0.00  0.00    -0.274 OA
BRANCH  42  46
ATOM     46  CA  VAL A   1       7.555   5.432  25.186  0.00  0.00    +0.140 C 
BRANCH  46  47
ATOM     47  N   VAL A   1       8.491   5.374  26.328  0.00  0.00    -0.320 NA
ATOM     48  H1  VAL A   1       9.105   4.567  26.211  0.00  0.00    +0.119 HD
ATOM     49  H2  VAL A   1       9.117   6.182  26.255  0.00  0.00    +0.119 HD
ENDBRANCH  46  47
BRANCH  46  50
ATOM     50  CB  VAL A   1       8.316   5.444  23.837  0.00  0.00    +0.009 C 
ATOM     51  CG2 VAL A   1       9.572   4.562  23.875  0.00  0.00    +0.009 C 
ATOM     52  CG1 VAL A   1       7.425   4.978  22.679  0.00  0.00    +0.009 C 
ENDBRANCH  46  50
ENDBRANCH  42  46
ENDBRANCH  41  43
BRANCH  41  53
ATOM     53  CB  ARG A   2       4.229   2.739  24.206  0.00  0.00    +0.035 C 
BRANCH  53  54
ATOM     54  CG  ARG A   2       3.159   3.220  23.222  0.00  0.00    +0.039 C 
BRANCH  54  55
ATOM     55  CD  ARG A   2       3.770   3.702  21.908  0.00  0.00    +0.196 C 
BRANCH  55  56
ATOM     56  NE  ARG A   2       2.762   3.702  20.836  0.00  0.00    -0.279 N 
ATOM     57  HE  ARG A   2       1.965   4.331  20.903  0.00  0.00    +0.258 HD
ATOM     58  CZ  ARG A   2       2.806   2.923  19.746  0.00  0.00    +0.341 C 
ATOM     59  NH2 ARG A   2       1.810   2.963  18.865  0.00  0.00    -0.292 N 
ATOM     60 HH21 ARG A   2       0.940   3.471  19.076  0.00  0.00    +0.255 HD
ATOM     61 HH22 ARG A   2       1.814   2.426  18.012  0.00  0.00    +0.255 HD
ATOM     62  NH1 ARG A   2       3.828   2.093  19.516  0.00  0.00    -0.292 N 
ATOM     63 HH11 ARG A   2       4.603   2.023  20.160  0.00  0.00    +0.255 HD
ATOM     64 HH12 ARG A   2       3.851   1.502  18.696  0.00  0.00    +0.255 HD
ENDBRANCH  55  56
ENDBRANCH  54  55
ENDBRANCH  53  54
ENDBRANCH  41  53
ENDBRANCH  37  41
ENDBRANCH  36  39
BRANCH  36  65
ATOM     65  CB  LEU A   3       4.545  -1.055  27.106  0.00  0.00    +0.034 C 
BRANCH  65  66
ATOM     66  CG  LEU A   3       3.513  -1.436  28.187  0.00  0.00    -0.015 C 
ATOM     67  CD2 LEU A   3       3.946  -2.726  28.888  0.00  0.00    +0.007 C 
ATOM     68  CD1 LEU A   3       3.328  -0.328  29.226  0.00  0.00    +0.007 C 
ENDBRANCH  65  66
ENDBRANCH  36  65
ENDBRANCH  32  36
ENDBRANCH   1  33
BRANCH   1  69
ATOM     69  CB  GLN A   4       8.764  -2.148  25.130  0.00  0.00    +0.041 C 
BRANCH  69  70
ATOM     70  CG  GLN A   4       8.513  -3.257  26.147  0.00  0.00    +0.098 C 
BRANCH  70  71
ATOM     71  CD  GLN A   4       9.090  -4.554  25.622  0.00  0.00    +0.211 C 
ATOM     72  OE1 GLN A   4       9.975  -4.604  24.766  0.00  0.00    -0.276 OA
ATOM     73  NE2 GLN A   4       8.623  -5.679  26.230  0.00  0.00    -0.329 N 
ATOM     74 HE21 GLN A   4       7.862  -5.664  26.900  0.00  0.00    +0.145 HD
ATOM     75 HE22 GLN A   4       8.953  -6.586  25.929  0.00  0.00    +0.145 HD
ENDBRANCH  70  71
ENDBRANCH  69  70
ENDBRANCH   1  69
TORSDOF 28
ENDMDL
MODEL 8
REMARK VINA RESULT:      -5.5      2.109      6.586
REMARK  Name = VRLQAGNA-mmff94.pdb
REMARK  34 active torsions:
REMARK  status: ('A' for Active; 'I' for Inactive)
REMARK    1  A    between atoms: _1  and  _2
REMARK    2  A    between atoms: _2  and  _3
REMARK    3  A    between atoms: _2  and  _5
REMARK    4  A    between atoms: _5  and  _6
REMARK    5  A    between atoms: _5  and  _7
REMARK    6  A    between atoms: _17  and  _18
REMARK    7  A    between atoms: _18  and  _19
REMARK    8  A    between atoms: _18  and  _21
REMARK    9  A    between atoms: _21  and  _22
REMARK   10  A    between atoms: _22  and  _23
REMARK   11  A    between atoms: _23  and  _24
REMARK   12  A    between atoms: _41  and  _42
REMARK   13  A    between atoms: _42  and  _43
REMARK   14  A    between atoms: _42  and  _45
REMARK   15  A    between atoms: _45  and  _46
REMARK   16  A    between atoms: _46  and  _47
REMARK   17  A    between atoms: _46  and  _48
REMARK   18  A    between atoms: _60  and  _61
REMARK   19  A    between atoms: _61  and  _62
REMARK   20  A    between atoms: _61  and  _64
REMARK   21  A    between atoms: _64  and  _65
REMARK   22  A    between atoms: _65  and  _66
REMARK   23  A    between atoms: _77  and  _78
REMARK   24  A    between atoms: _78  and  _79
REMARK   25  A    between atoms: _78  and  _81
REMARK   26  A    between atoms: _87  and  _88
REMARK   27  A    between atoms: _88  and  _89
REMARK   28  A    between atoms: _94  and  _95
REMARK   29  A    between atoms: _95  and  _96
REMARK   30  A    between atoms: _95  and  _98
REMARK   31  A    between atoms: _98  and  _99
REMARK   32  A    between atoms: _108  and  _109
REMARK   33  A    between atoms: _109  and  _110
REMARK   34  A    between atoms: _109  and  _112
REMARK                            x       y       z     vdW  Elec       q    Type
REMARK                         _______ _______ _______ _____ _____    ______ ____
ROOT
ATOM      1  CA  GLN A   4       6.717   1.120  21.430  0.00  0.00    +0.159 C 
ENDROOT
BRANCH   1   2
ATOM      2  C   GLN A   4       8.210   1.311  21.759  0.00  0.00    +0.234 C 
ATOM      3  O   GLN A   4       9.076   0.608  21.239  0.00  0.00    -0.274 OA
ATOM      4  N   ALA A   5       8.497   2.278  22.688  0.00  0.00    -0.303 N 
ATOM      5  H   ALA A   5       7.777   2.894  23.053  0.00  0.00    +0.149 HD
BRANCH   4   6
ATOM      6  CA  ALA A   5       9.870   2.593  23.086  0.00  0.00    +0.156 C 
ATOM      7  CB  ALA A   5       9.949   3.950  23.779  0.00  0.00    +0.038 C 
BRANCH   6   8
ATOM      8  C   ALA A   5      10.355   1.475  24.030  0.00  0.00    +0.233 C 
ATOM      9  N   GLY A   6       9.369   0.658  24.516  0.00  0.00    -0.305 N 
ATOM     10  H   GLY A   6       8.388   0.838  24.316  0.00  0.00    +0.149 HD
ATOM     11  O   ALA A   5      11.546   1.334  24.312  0.00  0.00    -0.274 OA
BRANCH   9  12
ATOM     12  CA  GLY A   6       9.659  -0.499  25.344  0.00  0.00    +0.200 C 
BRANCH  12  13
ATOM     13  C   GLY A   6       9.397  -1.773  24.541  0.00  0.00    +0.231 C 
ATOM     14  O   GLY A   6      10.145  -2.146  23.637  0.00  0.00    -0.274 OA
ATOM     15  N   ASN A   7       8.258  -2.450  24.894  0.00  0.00    -0.302 N 
ATOM     16  H   ASN A   7       7.629  -2.077  25.601  0.00  0.00    +0.150 HD
BRANCH  15  17
ATOM     17  CA  ASN A   7       7.876  -3.726  24.290  0.00  0.00    +0.168 C 
BRANCH  17  18
ATOM     18  C   ASN A   7       6.404  -3.976  24.666  0.00  0.00    +0.234 C 
ATOM     19  N   ALA A   8       5.836  -5.086  24.092  0.00  0.00    -0.305 N 
ATOM     20  H   ALA A   8       6.378  -5.706  23.495  0.00  0.00    +0.149 HD
ATOM     21  O   ASN A   7       5.797  -3.250  25.453  0.00  0.00    -0.274 OA
BRANCH  19  22
ATOM     22  CA  ALA A   8       4.487  -5.534  24.419  0.00  0.00    +0.133 C 
ATOM     23  CB  ALA A   8       3.689  -5.904  23.179  0.00  0.00    +0.035 C 
BRANCH  22  24
ATOM     24  C   ALA A   8       4.612  -6.750  25.326  0.00  0.00    +0.245 C 
ATOM     25  O   ALA A   8       5.328  -6.772  26.328  0.00  0.00    -0.299 OA
ENDBRANCH  22  24
ENDBRANCH  19  22
ENDBRANCH  17  18
BRANCH  17  26
ATOM     26  CB  ASN A   7       8.722  -4.891  24.801  0.00  0.00    +0.127 C 
BRANCH  26  27
ATOM     27  CG  ASN A   7       8.769  -4.979  26.306  0.00  0.00    +0.213 C 
ATOM     28  OD1 ASN A   7       9.329  -4.140  27.003  0.00  0.00    -0.276 OA
ATOM     29  ND2 ASN A   7       8.124  -6.039  26.868  0.00  0.00    -0.329 N 
ATOM     30 HD21 ASN A   7       8.257  -6.135  27.867  0.00  0.00    +0.145 HD
ATOM     31 HD22 ASN A   7       8.000  -6.906  26.364  0.00  0.00    +0.145 HD
ENDBRANCH  26  27
ENDBRANCH  17  26
ENDBRANCH  15  17
ENDBRANCH  12  13
ENDBRANCH   9  12
ENDBRANCH   6   8
ENDBRANCH   4   6
ENDBRANCH   1   2
BRANCH   1  33
ATOM     32  C   LEU A   3       5.885   1.065  23.777  0.00  0.00    +0.234 C 
ATOM     33  N   GLN A   4       5.979   1.688  22.558  0.00  0.00    -0.302 N 
ATOM     34  H   GLN A   4       5.490   2.564  22.380  0.00  0.00    +0.150 HD
ATOM     35  O   LEU A   3       6.410  -0.028  24.003  0.00  0.00    -0.274 OA
BRANCH  32  36
ATOM     36  CA  LEU A   3       5.047   1.823  24.830  0.00  0.00    +0.159 C 
BRANCH  36  39
ATOM     37  C   ARG A   2       4.242   0.725  26.911  0.00  0.00    +0.234 C 
ATOM     38  O   ARG A   2       3.059   0.976  26.689  0.00  0.00    -0.274 OA
ATOM     39  N   LEU A   3       5.269   1.143  26.102  0.00  0.00    -0.302 N 
ATOM     40  H   LEU A   3       6.216   0.826  26.281  0.00  0.00    +0.150 HD
BRANCH  37  41
ATOM     41  CA  ARG A   2       4.680  -0.127  28.113  0.00  0.00    +0.159 C 
BRANCH  41  43
ATOM     42  C   VAL A   1       6.611   1.107  29.056  0.00  0.00    +0.231 C 
ATOM     43  N   ARG A   2       5.273   0.795  29.072  0.00  0.00    -0.303 N 
ATOM     44  H   ARG A   2       4.641   1.268  29.714  0.00  0.00    +0.149 HD
ATOM     45  O   VAL A   1       7.408   0.548  28.306  0.00  0.00    -0.274 OA
BRANCH  42  46
ATOM     46  CA  VAL A   1       7.026   2.210  30.062  0.00  0.00    +0.140 C 
BRANCH  46  47
ATOM     47  N   VAL A   1       8.477   2.080  30.310  0.00  0.00    -0.320 NA
ATOM     48  H1  VAL A   1       8.959   1.997  29.416  0.00  0.00    +0.119 HD
ATOM     49  H2  VAL A   1       8.805   2.971  30.694  0.00  0.00    +0.119 HD
ENDBRANCH  46  47
BRANCH  46  50
ATOM     50  CB  VAL A   1       6.674   3.619  29.524  0.00  0.00    +0.009 C 
ATOM     51  CG2 VAL A   1       7.010   3.770  28.034  0.00  0.00    +0.009 C 
ATOM     52  CG1 VAL A   1       5.189   3.949  29.727  0.00  0.00    +0.009 C 
ENDBRANCH  46  50
ENDBRANCH  42  46
ENDBRANCH  41  43
BRANCH  41  53
ATOM     53  CB  ARG A   2       3.480  -0.863  28.728  0.00  0.00    +0.035 C 
BRANCH  53  54
ATOM     54  CG  ARG A   2       3.792  -1.493  30.087  0.00  0.00    +0.039 C 
BRANCH  54  55
ATOM     55  CD  ARG A   2       3.198  -2.894  30.213  0.00  0.00    +0.196 C 
BRANCH  55  56
ATOM     56  NE  ARG A   2       4.254  -3.916  30.129  0.00  0.00    -0.279 N 
ATOM     57  HE  ARG A   2       4.759  -4.180  30.972  0.00  0.00    +0.258 HD
ATOM     58  CZ  ARG A   2       4.619  -4.546  29.004  0.00  0.00    +0.341 C 
ATOM     59  NH2 ARG A   2       5.629  -5.413  29.029  0.00  0.00    -0.292 N 
ATOM     60 HH21 ARG A   2       6.228  -5.499  29.861  0.00  0.00    +0.255 HD
ATOM     61 HH22 ARG A   2       5.915  -5.940  28.220  0.00  0.00    +0.255 HD
ATOM     62  NH1 ARG A   2       3.997  -4.326  27.841  0.00  0.00    -0.292 N 
ATOM     63 HH11 ARG A   2       3.230  -3.672  27.771  0.00  0.00    +0.255 HD
ATOM     64 HH12 ARG A   2       4.282  -4.799  26.995  0.00  0.00    +0.255 HD
ENDBRANCH  55  56
ENDBRANCH  54  55
ENDBRANCH  53  54
ENDBRANCH  41  53
ENDBRANCH  37  41
ENDBRANCH  36  39
BRANCH  36  65
ATOM     65  CB  LEU A   3       5.459   3.299  24.911  0.00  0.00    +0.034 C 
BRANCH  65  66
ATOM     66  CG  LEU A   3       4.278   4.292  24.893  0.00  0.00    -0.015 C 
ATOM     67  CD2 LEU A   3       3.149   3.743  24.016  0.00  0.00    +0.007 C 
ATOM     68  CD1 LEU A   3       3.741   4.576  26.297  0.00  0.00    +0.007 C 
ENDBRANCH  65  66
ENDBRANCH  36  65
ENDBRANCH  32  36
ENDBRANCH   1  33
BRANCH   1  69
ATOM     69  CB  GLN A   4       6.342   1.838  20.127  0.00  0.00    +0.041 C 
BRANCH  69  70
ATOM     70  CG  GLN A   4       5.477   0.985  19.204  0.00  0.00    +0.098 C 
BRANCH  70  71
ATOM     71  CD  GLN A   4       6.368   0.074  18.387  0.00  0.00    +0.211 C 
ATOM     72  OE1 GLN A   4       7.578   0.256  18.251  0.00  0.00    -0.276 OA
ATOM     73  NE2 GLN A   4       5.750  -1.027  17.876  0.00  0.00    -0.329 N 
ATOM     74 HE21 GLN A   4       4.748  -1.169  17.934  0.00  0.00    +0.145 HD
ATOM     75 HE22 GLN A   4       6.276  -1.679  17.310  0.00  0.00    +0.145 HD
ENDBRANCH  70  71
ENDBRANCH  69  70
ENDBRANCH   1  69
TORSDOF 28
ENDMDL
MODEL 9
REMARK VINA RESULT:      -5.5      2.065      7.995
REMARK  Name = VRLQAGNA-mmff94.pdb
REMARK  34 active torsions:
REMARK  status: ('A' for Active; 'I' for Inactive)
REMARK    1  A    between atoms: _1  and  _2
REMARK    2  A    between atoms: _2  and  _3
REMARK    3  A    between atoms: _2  and  _5
REMARK    4  A    between atoms: _5  and  _6
REMARK    5  A    between atoms: _5  and  _7
REMARK    6  A    between atoms: _17  and  _18
REMARK    7  A    between atoms: _18  and  _19
REMARK    8  A    between atoms: _18  and  _21
REMARK    9  A    between atoms: _21  and  _22
REMARK   10  A    between atoms: _22  and  _23
REMARK   11  A    between atoms: _23  and  _24
REMARK   12  A    between atoms: _41  and  _42
REMARK   13  A    between atoms: _42  and  _43
REMARK   14  A    between atoms: _42  and  _45
REMARK   15  A    between atoms: _45  and  _46
REMARK   16  A    between atoms: _46  and  _47
REMARK   17  A    between atoms: _46  and  _48
REMARK   18  A    between atoms: _60  and  _61
REMARK   19  A    between atoms: _61  and  _62
REMARK   20  A    between atoms: _61  and  _64
REMARK   21  A    between atoms: _64  and  _65
REMARK   22  A    between atoms: _65  and  _66
REMARK   23  A    between atoms: _77  and  _78
REMARK   24  A    between atoms: _78  and  _79
REMARK   25  A    between atoms: _78  and  _81
REMARK   26  A    between atoms: _87  and  _88
REMARK   27  A    between atoms: _88  and  _89
REMARK   28  A    between atoms: _94  and  _95
REMARK   29  A    between atoms: _95  and  _96
REMARK   30  A    between atoms: _95  and  _98
REMARK   31  A    between atoms: _98  and  _99
REMARK   32  A    between atoms: _108  and  _109
REMARK   33  A    between atoms: _109  and  _110
REMARK   34  A    between atoms: _109  and  _112
REMARK                            x       y       z     vdW  Elec       q    Type
REMARK                         _______ _______ _______ _____ _____    ______ ____
ROOT
ATOM      1  CA  GLN A   4       2.926  -3.492  27.460  0.00  0.00    +0.159 C 
ENDROOT
BRANCH   1   2
ATOM      2  C   GLN A   4       2.964  -1.952  27.435  0.00  0.00    +0.234 C 
ATOM      3  O   GLN A   4       2.337  -1.310  26.593  0.00  0.00    -0.274 OA
ATOM      4  N   ALA A   5       3.765  -1.360  28.376  0.00  0.00    -0.303 N 
ATOM      5  H   ALA A   5       4.219  -1.903  29.105  0.00  0.00    +0.149 HD
BRANCH   4   6
ATOM      6  CA  ALA A   5       3.886   0.093  28.493  0.00  0.00    +0.156 C 
ATOM      7  CB  ALA A   5       3.269   0.599  29.794  0.00  0.00    +0.038 C 
BRANCH   6   8
ATOM      8  C   ALA A   5       5.385   0.448  28.433  0.00  0.00    +0.233 C 
ATOM      9  N   GLY A   6       5.970   0.287  27.204  0.00  0.00    -0.305 N 
ATOM     10  H   GLY A   6       5.455  -0.111  26.423  0.00  0.00    +0.149 HD
ATOM     11  O   ALA A   5       5.997   0.855  29.421  0.00  0.00    -0.274 OA
BRANCH   9  12
ATOM     12  CA  GLY A   6       7.349   0.660  26.948  0.00  0.00    +0.200 C 
BRANCH  12  13
ATOM     13  C   GLY A   6       7.398   2.112  26.472  0.00  0.00    +0.231 C 
ATOM     14  O   GLY A   6       7.283   3.062  27.245  0.00  0.00    -0.274 OA
ATOM     15  N   ASN A   7       7.561   2.267  25.119  0.00  0.00    -0.302 N 
ATOM     16  H   ASN A   7       7.587   1.458  24.502  0.00  0.00    +0.150 HD
BRANCH  15  17
ATOM     17  CA  ASN A   7       7.703   3.577  24.483  0.00  0.00    +0.168 C 
BRANCH  17  18
ATOM     18  C   ASN A   7       6.303   4.217  24.461  0.00  0.00    +0.234 C 
ATOM     19  N   ALA A   8       5.394   3.604  23.634  0.00  0.00    -0.305 N 
ATOM     20  H   ALA A   8       5.639   2.766  23.113  0.00  0.00    +0.149 HD
ATOM     21  O   ASN A   7       6.016   5.187  25.163  0.00  0.00    -0.274 OA
BRANCH  19  22
ATOM     22  CA  ALA A   8       3.995   4.011  23.570  0.00  0.00    +0.133 C 
ATOM     23  CB  ALA A   8       3.295   3.463  22.336  0.00  0.00    +0.035 C 
BRANCH  22  24
ATOM     24  C   ALA A   8       3.305   3.487  24.822  0.00  0.00    +0.245 C 
ATOM     25  O   ALA A   8       2.981   2.308  24.968  0.00  0.00    -0.299 OA
ENDBRANCH  22  24
ENDBRANCH  19  22
ENDBRANCH  17  18
BRANCH  17  26
ATOM     26  CB  ASN A   7       8.224   3.477  23.050  0.00  0.00    +0.127 C 
BRANCH  26  27
ATOM     27  CG  ASN A   7       9.458   2.620  22.923  0.00  0.00    +0.213 C 
ATOM     28  OD1 ASN A   7      10.164   2.326  23.881  0.00  0.00    -0.276 OA
ATOM     29  ND2 ASN A   7       9.741   2.154  21.674  0.00  0.00    -0.329 N 
ATOM     30 HD21 ASN A   7      10.628   1.671  21.594  0.00  0.00    +0.145 HD
ATOM     31 HD22 ASN A   7       9.446   2.655  20.848  0.00  0.00    +0.145 HD
ENDBRANCH  26  27
ENDBRANCH  17  26
ENDBRANCH  15  17
ENDBRANCH  12  13
ENDBRANCH   9  12
ENDBRANCH   6   8
ENDBRANCH   4   6
ENDBRANCH   1   2
BRANCH   1  33
ATOM     32  C   LEU A   3       4.669  -3.576  25.683  0.00  0.00    +0.234 C 
ATOM     33  N   GLN A   4       3.432  -3.930  26.160  0.00  0.00    -0.302 N 
ATOM     34  H   GLN A   4       2.792  -4.485  25.592  0.00  0.00    +0.150 HD
ATOM     35  O   LEU A   3       5.439  -2.850  26.318  0.00  0.00    -0.274 OA
BRANCH  32  36
ATOM     36  CA  LEU A   3       5.007  -4.129  24.281  0.00  0.00    +0.159 C 
BRANCH  36  39
ATOM     37  C   ARG A   2       6.169  -3.026  22.380  0.00  0.00    +0.234 C 
ATOM     38  O   ARG A   2       5.516  -3.619  21.523  0.00  0.00    -0.274 OA
ATOM     39  N   LEU A   3       6.032  -3.250  23.727  0.00  0.00    -0.302 N 
ATOM     40  H   LEU A   3       6.526  -2.664  24.391  0.00  0.00    +0.150 HD
BRANCH  37  41
ATOM     41  CA  ARG A   2       7.186  -1.933  22.013  0.00  0.00    +0.159 C 
BRANCH  41  43
ATOM     42  C   VAL A   1       7.352  -0.419  20.059  0.00  0.00    +0.231 C 
ATOM     43  N   ARG A   2       6.594  -1.176  20.918  0.00  0.00    -0.303 N 
ATOM     44  H   ARG A   2       5.595  -1.290  20.760  0.00  0.00    +0.149 HD
ATOM     45  O   VAL A   1       8.558  -0.245  20.224  0.00  0.00    -0.274 OA
BRANCH  42  46
ATOM     46  CA  VAL A   1       6.562   0.197  18.877  0.00  0.00    +0.140 C 
BRANCH  46  47
ATOM     47  N   VAL A   1       5.558  -0.791  18.433  0.00  0.00    -0.320 NA
ATOM     48  H1  VAL A   1       4.727  -0.704  19.018  0.00  0.00    +0.119 HD
ATOM     49  H2  VAL A   1       5.241  -0.511  17.500  0.00  0.00    +0.119 HD
ENDBRANCH  46  47
BRANCH  46  50
ATOM     50  CB  VAL A   1       5.891   1.532  19.288  0.00  0.00    +0.009 C 
ATOM     51  CG2 VAL A   1       4.369   1.498  19.093  0.00  0.00    +0.009 C 
ATOM     52  CG1 VAL A   1       6.190   1.890  20.750  0.00  0.00    +0.009 C 
ENDBRANCH  46  50
ENDBRANCH  42  46
ENDBRANCH  41  43
BRANCH  41  53
ATOM     53  CB  ARG A   2       7.470  -1.025  23.218  0.00  0.00    +0.035 C 
BRANCH  53  54
ATOM     54  CG  ARG A   2       8.932  -1.066  23.673  0.00  0.00    +0.039 C 
BRANCH  54  55
ATOM     55  CD  ARG A   2       9.101  -1.853  24.970  0.00  0.00    +0.196 C 
BRANCH  55  56
ATOM     56  NE  ARG A   2       9.429  -3.259  24.685  0.00  0.00    -0.279 N 
ATOM     57  HE  ARG A   2      10.026  -3.479  23.891  0.00  0.00    +0.258 HD
ATOM     58  CZ  ARG A   2       8.997  -4.305  25.404  0.00  0.00    +0.341 C 
ATOM     59  NH2 ARG A   2       9.307  -5.542  25.022  0.00  0.00    -0.292 N 
ATOM     60 HH21 ARG A   2       9.747  -5.716  24.109  0.00  0.00    +0.255 HD
ATOM     61 HH22 ARG A   2       9.039  -6.358  25.549  0.00  0.00    +0.255 HD
ATOM     62  NH1 ARG A   2       8.250  -4.144  26.501  0.00  0.00    -0.292 N 
ATOM     63 HH11 ARG A   2       7.984  -3.225  26.825  0.00  0.00    +0.255 HD
ATOM     64 HH12 ARG A   2       7.921  -4.938  27.033  0.00  0.00    +0.255 HD
ENDBRANCH  55  56
ENDBRANCH  54  55
ENDBRANCH  53  54
ENDBRANCH  41  53
ENDBRANCH  37  41
ENDBRANCH  36  39
BRANCH  36  65
ATOM     65  CB  LEU A   3       5.504  -5.579  24.361  0.00  0.00    +0.034 C 
BRANCH  65  66
ATOM     66  CG  LEU A   3       4.461  -6.634  23.937  0.00  0.00    -0.015 C 
ATOM     67  CD2 LEU A   3       3.850  -7.289  25.179  0.00  0.00    +0.007 C 
ATOM     68  CD1 LEU A   3       3.348  -6.033  23.077  0.00  0.00    +0.007 C 
ENDBRANCH  65  66
ENDBRANCH  36  65
ENDBRANCH  32  36
ENDBRANCH   1  33
BRANCH   1  69
ATOM     69  CB  GLN A   4       3.801  -4.049  28.592  0.00  0.00    +0.041 C 
BRANCH  69  70
ATOM     70  CG  GLN A   4       3.840  -5.573  28.622  0.00  0.00    +0.098 C 
BRANCH  70  71
ATOM     71  CD  GLN A   4       5.275  -6.038  28.509  0.00  0.00    +0.211 C 
ATOM     72  OE1 GLN A   4       6.240  -5.273  28.559  0.00  0.00    -0.276 OA
ATOM     73  NE2 GLN A   4       5.439  -7.387  28.435  0.00  0.00    -0.329 N 
ATOM     74 HE21 GLN A   4       4.660  -8.029  28.342  0.00  0.00    +0.145 HD
ATOM     75 HE22 GLN A   4       6.369  -7.776  28.347  0.00  0.00    +0.145 HD
ENDBRANCH  70  71
ENDBRANCH  69  70
ENDBRANCH   1  69
TORSDOF 28
ENDMDL
MODEL 10
REMARK VINA RESULT:      -5.5      2.273      7.993
REMARK  Name = VRLQAGNA-mmff94.pdb
REMARK  34 active torsions:
REMARK  status: ('A' for Active; 'I' for Inactive)
REMARK    1  A    between atoms: _1  and  _2
REMARK    2  A    between atoms: _2  and  _3
REMARK    3  A    between atoms: _2  and  _5
REMARK    4  A    between atoms: _5  and  _6
REMARK    5  A    between atoms: _5  and  _7
REMARK    6  A    between atoms: _17  and  _18
REMARK    7  A    between atoms: _18  and  _19
REMARK    8  A    between atoms: _18  and  _21
REMARK    9  A    between atoms: _21  and  _22
REMARK   10  A    between atoms: _22  and  _23
REMARK   11  A    between atoms: _23  and  _24
REMARK   12  A    between atoms: _41  and  _42
REMARK   13  A    between atoms: _42  and  _43
REMARK   14  A    between atoms: _42  and  _45
REMARK   15  A    between atoms: _45  and  _46
REMARK   16  A    between atoms: _46  and  _47
REMARK   17  A    between atoms: _46  and  _48
REMARK   18  A    between atoms: _60  and  _61
REMARK   19  A    between atoms: _61  and  _62
REMARK   20  A    between atoms: _61  and  _64
REMARK   21  A    between atoms: _64  and  _65
REMARK   22  A    between atoms: _65  and  _66
REMARK   23  A    between atoms: _77  and  _78
REMARK   24  A    between atoms: _78  and  _79
REMARK   25  A    between atoms: _78  and  _81
REMARK   26  A    between atoms: _87  and  _88
REMARK   27  A    between atoms: _88  and  _89
REMARK   28  A    between atoms: _94  and  _95
REMARK   29  A    between atoms: _95  and  _96
REMARK   30  A    between atoms: _95  and  _98
REMARK   31  A    between atoms: _98  and  _99
REMARK   32  A    between atoms: _108  and  _109
REMARK   33  A    between atoms: _109  and  _110
REMARK   34  A    between atoms: _109  and  _112
REMARK                            x       y       z     vdW  Elec       q    Type
REMARK                         _______ _______ _______ _____ _____    ______ ____
ROOT
ATOM      1  CA  GLN A   4       4.557   3.260  24.544  0.00  0.00    +0.159 C 
ENDROOT
BRANCH   1   2
ATOM      2  C   GLN A   4       3.301   3.087  23.669  0.00  0.00    +0.234 C 
ATOM      3  O   GLN A   4       2.197   2.867  24.168  0.00  0.00    -0.274 OA
ATOM      4  N   ALA A   5       3.504   3.153  22.314  0.00  0.00    -0.303 N 
ATOM      5  H   ALA A   5       4.408   3.404  21.925  0.00  0.00    +0.149 HD
BRANCH   4   6
ATOM      6  CA  ALA A   5       2.406   3.031  21.355  0.00  0.00    +0.156 C 
ATOM      7  CB  ALA A   5       1.564   4.302  21.311  0.00  0.00    +0.038 C 
BRANCH   6   8
ATOM      8  C   ALA A   5       3.019   2.742  19.971  0.00  0.00    +0.233 C 
ATOM      9  N   GLY A   6       4.134   1.946  19.986  0.00  0.00    -0.305 N 
ATOM     10  H   GLY A   6       4.554   1.642  20.861  0.00  0.00    +0.149 HD
ATOM     11  O   ALA A   5       2.527   3.192  18.935  0.00  0.00    -0.274 OA
BRANCH   9  12
ATOM     12  CA  GLY A   6       4.784   1.500  18.766  0.00  0.00    +0.200 C 
BRANCH  12  13
ATOM     13  C   GLY A   6       6.041   0.707  19.126  0.00  0.00    +0.231 C 
ATOM     14  O   GLY A   6       7.041   0.700  18.410  0.00  0.00    -0.274 OA
ATOM     15  N   ASN A   7       5.955  -0.006  20.294  0.00  0.00    -0.302 N 
ATOM     16  H   ASN A   7       5.089  -0.028  20.827  0.00  0.00    +0.150 HD
BRANCH  15  17
ATOM     17  CA  ASN A   7       7.077  -0.768  20.841  0.00  0.00    +0.168 C 
BRANCH  17  18
ATOM     18  C   ASN A   7       6.500  -2.091  21.377  0.00  0.00    +0.234 C 
ATOM     19  N   ALA A   8       7.061  -2.541  22.547  0.00  0.00    -0.305 N 
ATOM     20  H   ALA A   8       7.778  -2.002  23.027  0.00  0.00    +0.149 HD
ATOM     21  O   ASN A   7       5.578  -2.680  20.812  0.00  0.00    -0.274 OA
BRANCH  19  22
ATOM     22  CA  ALA A   8       6.566  -3.717  23.252  0.00  0.00    +0.133 C 
ATOM     23  CB  ALA A   8       5.046  -3.754  23.307  0.00  0.00    +0.035 C 
BRANCH  22  24
ATOM     24  C   ALA A   8       7.078  -4.946  22.514  0.00  0.00    +0.245 C 
ATOM     25  O   ALA A   8       7.983  -5.661  22.945  0.00  0.00    -0.299 OA
ENDBRANCH  22  24
ENDBRANCH  19  22
ENDBRANCH  17  18
BRANCH  17  26
ATOM     26  CB  ASN A   7       7.780  -0.036  21.983  0.00  0.00    +0.127 C 
BRANCH  26  27
ATOM     27  CG  ASN A   7       9.169   0.429  21.628  0.00  0.00    +0.213 C 
ATOM     28  OD1 ASN A   7      10.141  -0.319  21.635  0.00  0.00    -0.276 OA
ATOM     29  ND2 ASN A   7       9.293   1.736  21.264  0.00  0.00    -0.329 N 
ATOM     30 HD21 ASN A   7      10.247   2.050  21.133  0.00  0.00    +0.145 HD
ATOM     31 HD22 ASN A   7       8.650   2.438  21.602  0.00  0.00    +0.145 HD
ENDBRANCH  26  27
ENDBRANCH  17  26
ENDBRANCH  15  17
ENDBRANCH  12  13
ENDBRANCH   9  12
ENDBRANCH   6   8
ENDBRANCH   4   6
ENDBRANCH   1   2
BRANCH   1  33
ATOM     32  C   LEU A   3       4.101   2.866  26.961  0.00  0.00    +0.234 C 
ATOM     33  N   GLN A   4       4.365   2.387  25.702  0.00  0.00    -0.302 N 
ATOM     34  H   GLN A   4       4.486   1.389  25.538  0.00  0.00    +0.150 HD
ATOM     35  O   LEU A   3       4.016   4.072  27.205  0.00  0.00    -0.274 OA
BRANCH  32  36
ATOM     36  CA  LEU A   3       3.949   1.781  28.049  0.00  0.00    +0.159 C 
BRANCH  36  39
ATOM     37  C   ARG A   2       4.188  -0.693  27.960  0.00  0.00    +0.234 C 
ATOM     38  O   ARG A   2       3.479  -0.883  28.947  0.00  0.00    -0.274 OA
ATOM     39  N   LEU A   3       4.514   0.556  27.492  0.00  0.00    -0.302 N 
ATOM     40  H   LEU A   3       5.021   0.653  26.619  0.00  0.00    +0.150 HD
BRANCH  37  41
ATOM     41  CA  ARG A   2       4.747  -1.855  27.126  0.00  0.00    +0.159 C 
BRANCH  41  43
ATOM     42  C   VAL A   1       6.634  -0.954  25.796  0.00  0.00    +0.231 C 
ATOM     43  N   ARG A   2       6.163  -1.572  26.928  0.00  0.00    -0.303 N 
ATOM     44  H   ARG A   2       6.790  -1.777  27.702  0.00  0.00    +0.149 HD
ATOM     45  O   VAL A   1       5.911  -0.703  24.834  0.00  0.00    -0.274 OA
BRANCH  42  46
ATOM     46  CA  VAL A   1       8.145  -0.613  25.831  0.00  0.00    +0.140 C 
BRANCH  46  47
ATOM     47  N   VAL A   1       8.863  -1.634  25.040  0.00  0.00    -0.320 NA
ATOM     48  H1  VAL A   1       9.668  -1.961  25.575  0.00  0.00    +0.119 HD
ATOM     49  H2  VAL A   1       8.254  -2.454  24.970  0.00  0.00    +0.119 HD
ENDBRANCH  46  47
BRANCH  46  50
ATOM     50  CB  VAL A   1       8.410   0.811  25.280  0.00  0.00    +0.009 C 
ATOM     51  CG2 VAL A   1       7.908   1.902  26.235  0.00  0.00    +0.009 C 
ATOM     52  CG1 VAL A   1       9.902   1.045  25.010  0.00  0.00    +0.009 C 
ENDBRANCH  46  50
ENDBRANCH  42  46
ENDBRANCH  41  43
BRANCH  41  53
ATOM     53  CB  ARG A   2       4.551  -3.194  27.852  0.00  0.00    +0.035 C 
BRANCH  53  54
ATOM     54  CG  ARG A   2       4.977  -4.403  27.015  0.00  0.00    +0.039 C 
BRANCH  54  55
ATOM     55  CD  ARG A   2       5.913  -5.329  27.789  0.00  0.00    +0.196 C 
BRANCH  55  56
ATOM     56  NE  ARG A   2       6.925  -5.912  26.893  0.00  0.00    -0.279 N 
ATOM     57  HE  ARG A   2       6.790  -6.856  26.539  0.00  0.00    +0.258 HD
ATOM     58  CZ  ARG A   2       8.040  -5.286  26.491  0.00  0.00    +0.341 C 
ATOM     59  NH2 ARG A   2       8.918  -5.929  25.725  0.00  0.00    -0.292 N 
ATOM     60 HH21 ARG A   2       8.829  -6.940  25.556  0.00  0.00    +0.255 HD
ATOM     61 HH22 ARG A   2       9.752  -5.491  25.366  0.00  0.00    +0.255 HD
ATOM     62  NH1 ARG A   2       8.306  -4.025  26.844  0.00  0.00    -0.292 N 
ATOM     63 HH11 ARG A   2       7.672  -3.499  27.431  0.00  0.00    +0.255 HD
ATOM     64 HH12 ARG A   2       9.153  -3.562  26.545  0.00  0.00    +0.255 HD
ENDBRANCH  55  56
ENDBRANCH  54  55
ENDBRANCH  53  54
ENDBRANCH  41  53
ENDBRANCH  37  41
ENDBRANCH  36  39
BRANCH  36  65
ATOM     65  CB  LEU A   3       4.670   2.186  29.342  0.00  0.00    +0.034 C 
BRANCH  65  66
ATOM     66  CG  LEU A   3       6.193   2.381  29.188  0.00  0.00    -0.015 C 
ATOM     67  CD2 LEU A   3       6.579   3.807  29.591  0.00  0.00    +0.007 C 
ATOM     68  CD1 LEU A   3       6.991   1.379  30.025  0.00  0.00    +0.007 C 
ENDBRANCH  65  66
ENDBRANCH  36  65
ENDBRANCH  32  36
ENDBRANCH   1  33
BRANCH   1  69
ATOM     69  CB  GLN A   4       5.825   2.863  23.776  0.00  0.00    +0.041 C 
BRANCH  69  70
ATOM     70  CG  GLN A   4       6.782   4.031  23.561  0.00  0.00    +0.098 C 
BRANCH  70  71
ATOM     71  CD  GLN A   4       7.019   4.214  22.077  0.00  0.00    +0.211 C 
ATOM     72  OE1 GLN A   4       6.755   3.351  21.239  0.00  0.00    -0.276 OA
ATOM     73  NE2 GLN A   4       7.468   5.447  21.714  0.00  0.00    -0.329 N 
ATOM     74 HE21 GLN A   4       7.738   6.153  22.390  0.00  0.00    +0.145 HD
ATOM     75 HE22 GLN A   4       7.660   5.645  20.741  0.00  0.00    +0.145 HD
ENDBRANCH  70  71
ENDBRANCH  69  70
ENDBRANCH   1  69
TORSDOF 28
ENDMDL
MODEL 11
REMARK VINA RESULT:      -5.5      2.152      8.266
REMARK  Name = VRLQAGNA-mmff94.pdb
REMARK  34 active torsions:
REMARK  status: ('A' for Active; 'I' for Inactive)
REMARK    1  A    between atoms: _1  and  _2
REMARK    2  A    between atoms: _2  and  _3
REMARK    3  A    between atoms: _2  and  _5
REMARK    4  A    between atoms: _5  and  _6
REMARK    5  A    between atoms: _5  and  _7
REMARK    6  A    between atoms: _17  and  _18
REMARK    7  A    between atoms: _18  and  _19
REMARK    8  A    between atoms: _18  and  _21
REMARK    9  A    between atoms: _21  and  _22
REMARK   10  A    between atoms: _22  and  _23
REMARK   11  A    between atoms: _23  and  _24
REMARK   12  A    between atoms: _41  and  _42
REMARK   13  A    between atoms: _42  and  _43
REMARK   14  A    between atoms: _42  and  _45
REMARK   15  A    between atoms: _45  and  _46
REMARK   16  A    between atoms: _46  and  _47
REMARK   17  A    between atoms: _46  and  _48
REMARK   18  A    between atoms: _60  and  _61
REMARK   19  A    between atoms: _61  and  _62
REMARK   20  A    between atoms: _61  and  _64
REMARK   21  A    between atoms: _64  and  _65
REMARK   22  A    between atoms: _65  and  _66
REMARK   23  A    between atoms: _77  and  _78
REMARK   24  A    between atoms: _78  and  _79
REMARK   25  A    between atoms: _78  and  _81
REMARK   26  A    between atoms: _87  and  _88
REMARK   27  A    between atoms: _88  and  _89
REMARK   28  A    between atoms: _94  and  _95
REMARK   29  A    between atoms: _95  and  _96
REMARK   30  A    between atoms: _95  and  _98
REMARK   31  A    between atoms: _98  and  _99
REMARK   32  A    between atoms: _108  and  _109
REMARK   33  A    between atoms: _109  and  _110
REMARK   34  A    between atoms: _109  and  _112
REMARK                            x       y       z     vdW  Elec       q    Type
REMARK                         _______ _______ _______ _____ _____    ______ ____
ROOT
ATOM      1  CA  GLN A   4       5.428   3.040  24.408  0.00  0.00    +0.159 C 
ENDROOT
BRANCH   1   2
ATOM      2  C   GLN A   4       4.096   2.940  23.640  0.00  0.00    +0.234 C 
ATOM      3  O   GLN A   4       3.064   2.561  24.193  0.00  0.00    -0.274 OA
ATOM      4  N   ALA A   5       4.151   3.258  22.308  0.00  0.00    -0.303 N 
ATOM      5  H   ALA A   5       4.995   3.634  21.886  0.00  0.00    +0.149 HD
BRANCH   4   6
ATOM      6  CA  ALA A   5       2.965   3.233  21.451  0.00  0.00    +0.156 C 
ATOM      7  CB  ALA A   5       2.429   4.641  21.205  0.00  0.00    +0.038 C 
BRANCH   6   8
ATOM      8  C   ALA A   5       3.358   2.565  20.119  0.00  0.00    +0.233 C 
ATOM      9  N   GLY A   6       4.634   2.067  20.075  0.00  0.00    -0.305 N 
ATOM     10  H   GLY A   6       5.282   2.206  20.847  0.00  0.00    +0.149 HD
ATOM     11  O   ALA A   5       2.571   2.484  19.175  0.00  0.00    -0.274 OA
BRANCH   9  12
ATOM     12  CA  GLY A   6       5.137   1.328  18.932  0.00  0.00    +0.200 C 
BRANCH  12  13
ATOM     13  C   GLY A   6       6.370   0.528  19.352  0.00  0.00    +0.231 C 
ATOM     14  O   GLY A   6       7.305   0.307  18.584  0.00  0.00    -0.274 OA
ATOM     15  N   ASN A   7       6.340   0.062  20.642  0.00  0.00    -0.302 N 
ATOM     16  H   ASN A   7       5.522   0.208  21.229  0.00  0.00    +0.150 HD
BRANCH  15  17
ATOM     17  CA  ASN A   7       7.457  -0.661  21.250  0.00  0.00    +0.168 C 
BRANCH  17  18
ATOM     18  C   ASN A   7       6.850  -1.664  22.248  0.00  0.00    +0.234 C 
ATOM     19  N   ALA A   8       6.794  -2.963  21.809  0.00  0.00    -0.305 N 
ATOM     20  H   ALA A   8       7.167  -3.228  20.901  0.00  0.00    +0.149 HD
ATOM     21  O   ASN A   7       6.476  -1.324  23.371  0.00  0.00    -0.274 OA
BRANCH  19  22
ATOM     22  CA  ALA A   8       6.349  -4.060  22.662  0.00  0.00    +0.133 C 
ATOM     23  CB  ALA A   8       4.833  -4.173  22.704  0.00  0.00    +0.035 C 
BRANCH  22  24
ATOM     24  C   ALA A   8       6.940  -5.346  22.104  0.00  0.00    +0.245 C 
ATOM     25  O   ALA A   8       7.888  -5.934  22.627  0.00  0.00    -0.299 OA
ENDBRANCH  22  24
ENDBRANCH  19  22
ENDBRANCH  17  18
BRANCH  17  26
ATOM     26  CB  ASN A   7       8.415   0.263  21.998  0.00  0.00    +0.127 C 
BRANCH  26  27
ATOM     27  CG  ASN A   7       9.666  -0.432  22.474  0.00  0.00    +0.213 C 
ATOM     28  OD1 ASN A   7      10.119  -0.283  23.603  0.00  0.00    -0.276 OA
ATOM     29  ND2 ASN A   7      10.265  -1.271  21.583  0.00  0.00    -0.329 N 
ATOM     30 HD21 ASN A   7      11.157  -1.644  21.886  0.00  0.00    +0.145 HD
ATOM     31 HD22 ASN A   7      10.170  -1.133  20.587  0.00  0.00    +0.145 HD
ENDBRANCH  26  27
ENDBRANCH  17  26
ENDBRANCH  15  17
ENDBRANCH  12  13
ENDBRANCH   9  12
ENDBRANCH   6   8
ENDBRANCH   4   6
ENDBRANCH   1   2
BRANCH   1  33
ATOM     32  C   LEU A   3       5.900   2.252  26.723  0.00  0.00    +0.234 C 
ATOM     33  N   GLN A   4       5.350   2.050  25.482  0.00  0.00    -0.302 N 
ATOM     34  H   GLN A   4       4.900   1.166  25.248  0.00  0.00    +0.150 HD
ATOM     35  O   LEU A   3       6.510   3.283  27.017  0.00  0.00    -0.274 OA
BRANCH  32  36
ATOM     36  CA  LEU A   3       5.722   1.077  27.710  0.00  0.00    +0.159 C 
BRANCH  36  39
ATOM     37  C   ARG A   2       4.592  -1.085  27.228  0.00  0.00    +0.234 C 
ATOM     38  O   ARG A   2       3.956  -1.086  28.280  0.00  0.00    -0.274 OA
ATOM     39  N   LEU A   3       5.507  -0.116  26.898  0.00  0.00    -0.302 N 
ATOM     40  H   LEU A   3       5.932  -0.113  25.976  0.00  0.00    +0.150 HD
BRANCH  37  41
ATOM     41  CA  ARG A   2       4.389  -2.165  26.154  0.00  0.00    +0.159 C 
BRANCH  41  43
ATOM     42  C   VAL A   1       6.235  -3.652  26.875  0.00  0.00    +0.231 C 
ATOM     43  N   ARG A   2       5.688  -2.792  25.954  0.00  0.00    -0.303 N 
ATOM     44  H   ARG A   2       6.149  -2.632  25.061  0.00  0.00    +0.149 HD
ATOM     45  O   VAL A   1       5.716  -3.860  27.970  0.00  0.00    -0.274 OA
BRANCH  42  46
ATOM     46  CA  VAL A   1       7.555  -4.325  26.422  0.00  0.00    +0.140 C 
BRANCH  46  47
ATOM     47  N   VAL A   1       7.210  -5.575  25.711  0.00  0.00    -0.320 NA
ATOM     48  H1  VAL A   1       6.863  -5.341  24.781  0.00  0.00    +0.119 HD
ATOM     49  H2  VAL A   1       8.084  -6.080  25.536  0.00  0.00    +0.119 HD
ENDBRANCH  46  47
BRANCH  46  50
ATOM     50  CB  VAL A   1       8.385  -3.379  25.519  0.00  0.00    +0.009 C 
ATOM     51  CG2 VAL A   1       8.833  -2.114  26.265  0.00  0.00    +0.009 C 
ATOM     52  CG1 VAL A   1       9.628  -4.080  24.955  0.00  0.00    +0.009 C 
ENDBRANCH  46  50
ENDBRANCH  42  46
ENDBRANCH  41  43
BRANCH  41  53
ATOM     53  CB  ARG A   2       3.345  -3.197  26.607  0.00  0.00    +0.035 C 
BRANCH  53  54
ATOM     54  CG  ARG A   2       2.616  -3.869  25.441  0.00  0.00    +0.039 C 
BRANCH  54  55
ATOM     55  CD  ARG A   2       2.650  -5.392  25.552  0.00  0.00    +0.196 C 
BRANCH  55  56
ATOM     56  NE  ARG A   2       3.915  -5.840  26.154  0.00  0.00    -0.279 N 
ATOM     57  HE  ARG A   2       4.794  -5.463  25.804  0.00  0.00    +0.258 HD
ATOM     58  CZ  ARG A   2       4.013  -6.729  27.153  0.00  0.00    +0.341 C 
ATOM     59  NH2 ARG A   2       5.214  -7.109  27.584  0.00  0.00    -0.292 N 
ATOM     60 HH21 ARG A   2       6.066  -6.846  27.070  0.00  0.00    +0.255 HD
ATOM     61 HH22 ARG A   2       5.341  -7.743  28.356  0.00  0.00    +0.255 HD
ATOM     62  NH1 ARG A   2       2.931  -7.257  27.733  0.00  0.00    -0.292 N 
ATOM     63 HH11 ARG A   2       1.999  -7.005  27.435  0.00  0.00    +0.255 HD
ATOM     64 HH12 ARG A   2       3.013  -7.933  28.480  0.00  0.00    +0.255 HD
ENDBRANCH  55  56
ENDBRANCH  54  55
ENDBRANCH  53  54
ENDBRANCH  41  53
ENDBRANCH  37  41
ENDBRANCH  36  39
BRANCH  36  65
ATOM     65  CB  LEU A   3       6.954   0.918  28.612  0.00  0.00    +0.034 C 
BRANCH  65  66
ATOM     66  CG  LEU A   3       6.734   1.359  30.074  0.00  0.00    -0.015 C 
ATOM     67  CD2 LEU A   3       7.523   2.640  30.356  0.00  0.00    +0.007 C 
ATOM     68  CD1 LEU A   3       5.255   1.589  30.392  0.00  0.00    +0.007 C 
ENDBRANCH  65  66
ENDBRANCH  36  65
ENDBRANCH  32  36
ENDBRANCH   1  33
BRANCH   1  69
ATOM     69  CB  GLN A   4       6.620   2.743  23.489  0.00  0.00    +0.041 C 
BRANCH  69  70
ATOM     70  CG  GLN A   4       7.732   3.781  23.600  0.00  0.00    +0.098 C 
BRANCH  70  71
ATOM     71  CD  GLN A   4       9.021   3.091  23.993  0.00  0.00    +0.211 C 
ATOM     72  OE1 GLN A   4      10.107   3.338  23.468  0.00  0.00    -0.276 OA
ATOM     73  NE2 GLN A   4       8.915   2.230  25.043  0.00  0.00    -0.329 N 
ATOM     74 HE21 GLN A   4       8.025   1.976  25.455  0.00  0.00    +0.145 HD
ATOM     75 HE22 GLN A   4       9.731   1.722  25.359  0.00  0.00    +0.145 HD
ENDBRANCH  70  71
ENDBRANCH  69  70
ENDBRANCH   1  69
TORSDOF 28
ENDMDL
MODEL 12
REMARK VINA RESULT:      -5.4      2.277      4.749
REMARK  Name = VRLQAGNA-mmff94.pdb
REMARK  34 active torsions:
REMARK  status: ('A' for Active; 'I' for Inactive)
REMARK    1  A    between atoms: _1  and  _2
REMARK    2  A    between atoms: _2  and  _3
REMARK    3  A    between atoms: _2  and  _5
REMARK    4  A    between atoms: _5  and  _6
REMARK    5  A    between atoms: _5  and  _7
REMARK    6  A    between atoms: _17  and  _18
REMARK    7  A    between atoms: _18  and  _19
REMARK    8  A    between atoms: _18  and  _21
REMARK    9  A    between atoms: _21  and  _22
REMARK   10  A    between atoms: _22  and  _23
REMARK   11  A    between atoms: _23  and  _24
REMARK   12  A    between atoms: _41  and  _42
REMARK   13  A    between atoms: _42  and  _43
REMARK   14  A    between atoms: _42  and  _45
REMARK   15  A    between atoms: _45  and  _46
REMARK   16  A    between atoms: _46  and  _47
REMARK   17  A    between atoms: _46  and  _48
REMARK   18  A    between atoms: _60  and  _61
REMARK   19  A    between atoms: _61  and  _62
REMARK   20  A    between atoms: _61  and  _64
REMARK   21  A    between atoms: _64  and  _65
REMARK   22  A    between atoms: _65  and  _66
REMARK   23  A    between atoms: _77  and  _78
REMARK   24  A    between atoms: _78  and  _79
REMARK   25  A    between atoms: _78  and  _81
REMARK   26  A    between atoms: _87  and  _88
REMARK   27  A    between atoms: _88  and  _89
REMARK   28  A    between atoms: _94  and  _95
REMARK   29  A    between atoms: _95  and  _96
REMARK   30  A    between atoms: _95  and  _98
REMARK   31  A    between atoms: _98  and  _99
REMARK   32  A    between atoms: _108  and  _109
REMARK   33  A    between atoms: _109  and  _110
REMARK   34  A    between atoms: _109  and  _112
REMARK                            x       y       z     vdW  Elec       q    Type
REMARK                         _______ _______ _______ _____ _____    ______ ____
ROOT
ATOM      1  CA  GLN A   4       7.927  -2.321  23.590  0.00  0.00    +0.159 C 
ENDROOT
BRANCH   1   2
ATOM      2  C   GLN A   4       6.970  -3.054  22.630  0.00  0.00    +0.234 C 
ATOM      3  O   GLN A   4       6.423  -2.466  21.698  0.00  0.00    -0.274 OA
ATOM      4  N   ALA A   5       6.742  -4.377  22.910  0.00  0.00    -0.303 N 
ATOM      5  H   ALA A   5       7.255  -4.861  23.641  0.00  0.00    +0.149 HD
BRANCH   4   6
ATOM      6  CA  ALA A   5       5.876  -5.212  22.077  0.00  0.00    +0.156 C 
ATOM      7  CB  ALA A   5       6.462  -6.609  21.893  0.00  0.00    +0.038 C 
BRANCH   6   8
ATOM      8  C   ALA A   5       4.497  -5.289  22.759  0.00  0.00    +0.233 C 
ATOM      9  N   GLY A   6       3.844  -6.485  22.612  0.00  0.00    -0.305 N 
ATOM     10  H   GLY A   6       4.225  -7.226  22.029  0.00  0.00    +0.149 HD
ATOM     11  O   ALA A   5       4.031  -4.342  23.394  0.00  0.00    -0.274 OA
BRANCH   9  12
ATOM     12  CA  GLY A   6       2.577  -6.761  23.264  0.00  0.00    +0.200 C 
BRANCH  12  13
ATOM     13  C   GLY A   6       2.840  -7.258  24.686  0.00  0.00    +0.231 C 
ATOM     14  O   GLY A   6       2.889  -8.456  24.966  0.00  0.00    -0.274 OA
ATOM     15  N   ASN A   7       2.996  -6.267  25.621  0.00  0.00    -0.302 N 
ATOM     16  H   ASN A   7       2.884  -5.289  25.365  0.00  0.00    +0.150 HD
BRANCH  15  17
ATOM     17  CA  ASN A   7       3.325  -6.542  27.020  0.00  0.00    +0.168 C 
BRANCH  17  18
ATOM     18  C   ASN A   7       2.834  -5.336  27.840  0.00  0.00    +0.234 C 
ATOM     19  N   ALA A   8       3.505  -4.160  27.609  0.00  0.00    -0.305 N 
ATOM     20  H   ALA A   8       4.244  -4.105  26.913  0.00  0.00    +0.149 HD
ATOM     21  O   ASN A   7       1.884  -5.417  28.620  0.00  0.00    -0.274 OA
BRANCH  19  22
ATOM     22  CA  ALA A   8       3.105  -2.897  28.217  0.00  0.00    +0.133 C 
ATOM     23  CB  ALA A   8       3.903  -2.589  29.475  0.00  0.00    +0.035 C 
BRANCH  22  24
ATOM     24  C   ALA A   8       3.331  -1.798  27.189  0.00  0.00    +0.245 C 
ATOM     25  O   ALA A   8       3.081  -1.935  25.991  0.00  0.00    -0.299 OA
ENDBRANCH  22  24
ENDBRANCH  19  22
ENDBRANCH  17  18
BRANCH  17  26
ATOM     26  CB  ASN A   7       4.826  -6.715  27.244  0.00  0.00    +0.127 C 
BRANCH  26  27
ATOM     27  CG  ASN A   7       5.175  -7.128  28.651  0.00  0.00    +0.213 C 
ATOM     28  OD1 ASN A   7       6.323  -7.110  29.083  0.00  0.00    -0.276 OA
ATOM     29  ND2 ASN A   7       4.134  -7.503  29.445  0.00  0.00    -0.329 N 
ATOM     30 HD21 ASN A   7       4.402  -7.876  30.349  0.00  0.00    +0.145 HD
ATOM     31 HD22 ASN A   7       3.287  -7.891  29.053  0.00  0.00    +0.145 HD
ENDBRANCH  26  27
ENDBRANCH  17  26
ENDBRANCH  15  17
ENDBRANCH  12  13
ENDBRANCH   9  12
ENDBRANCH   6   8
ENDBRANCH   4   6
ENDBRANCH   1   2
BRANCH   1  33
ATOM     32  C   LEU A   3       8.844  -0.466  22.204  0.00  0.00    +0.234 C 
ATOM     33  N   GLN A   4       7.957  -0.929  23.144  0.00  0.00    -0.302 N 
ATOM     34  H   GLN A   4       7.308  -0.294  23.606  0.00  0.00    +0.150 HD
ATOM     35  O   LEU A   3       9.687  -1.195  21.675  0.00  0.00    -0.274 OA
BRANCH  32  36
ATOM     36  CA  LEU A   3       8.723   1.040  21.884  0.00  0.00    +0.159 C 
BRANCH  36  39
ATOM     37  C   ARG A   2       6.770   2.502  22.363  0.00  0.00    +0.234 C 
ATOM     38  O   ARG A   2       6.799   3.048  21.261  0.00  0.00    -0.274 OA
ATOM     39  N   LEU A   3       7.690   1.568  22.769  0.00  0.00    -0.302 N 
ATOM     40  H   LEU A   3       7.563   1.081  23.650  0.00  0.00    +0.150 HD
BRANCH  37  41
ATOM     41  CA  ARG A   2       5.659   2.793  23.384  0.00  0.00    +0.159 C 
BRANCH  41  43
ATOM     42  C   VAL A   1       5.972   1.143  25.206  0.00  0.00    +0.231 C 
ATOM     43  N   ARG A   2       6.185   2.395  24.683  0.00  0.00    -0.303 N 
ATOM     44  H   ARG A   2       6.791   3.057  25.163  0.00  0.00    +0.149 HD
ATOM     45  O   VAL A   1       5.236   0.320  24.664  0.00  0.00    -0.274 OA
BRANCH  42  46
ATOM     46  CA  VAL A   1       6.726   0.861  26.529  0.00  0.00    +0.140 C 
BRANCH  46  47
ATOM     47  N   VAL A   1       8.135   1.269  26.349  0.00  0.00    -0.320 NA
ATOM     48  H1  VAL A   1       8.202   2.281  26.451  0.00  0.00    +0.119 HD
ATOM     49  H2  VAL A   1       8.667   0.897  27.141  0.00  0.00    +0.119 HD
ENDBRANCH  46  47
BRANCH  46  50
ATOM     50  CB  VAL A   1       6.073   1.613  27.716  0.00  0.00    +0.009 C 
ATOM     51  CG2 VAL A   1       5.625   0.657  28.830  0.00  0.00    +0.009 C 
ATOM     52  CG1 VAL A   1       7.025   2.655  28.318  0.00  0.00    +0.009 C 
ENDBRANCH  46  50
ENDBRANCH  42  46
ENDBRANCH  41  43
BRANCH  41  53
ATOM     53  CB  ARG A   2       5.286   4.283  23.376  0.00  0.00    +0.035 C 
BRANCH  53  54
ATOM     54  CG  ARG A   2       3.851   4.543  22.908  0.00  0.00    +0.039 C 
BRANCH  54  55
ATOM     55  CD  ARG A   2       3.214   3.291  22.308  0.00  0.00    +0.196 C 
BRANCH  55  56
ATOM     56  NE  ARG A   2       2.761   3.549  20.932  0.00  0.00    -0.279 N 
ATOM     57  HE  ARG A   2       2.051   4.259  20.767  0.00  0.00    +0.258 HD
ATOM     58  CZ  ARG A   2       3.217   2.910  19.846  0.00  0.00    +0.341 C 
ATOM     59  NH2 ARG A   2       2.695   3.180  18.652  0.00  0.00    -0.292 N 
ATOM     60 HH21 ARG A   2       1.851   3.762  18.566  0.00  0.00    +0.255 HD
ATOM     61 HH22 ARG A   2       3.030   2.756  17.801  0.00  0.00    +0.255 HD
ATOM     62  NH1 ARG A   2       4.187   1.993  19.924  0.00  0.00    -0.292 N 
ATOM     63 HH11 ARG A   2       4.609   1.749  20.810  0.00  0.00    +0.255 HD
ATOM     64 HH12 ARG A   2       4.521   1.509  19.102  0.00  0.00    +0.255 HD
ENDBRANCH  55  56
ENDBRANCH  54  55
ENDBRANCH  53  54
ENDBRANCH  41  53
ENDBRANCH  37  41
ENDBRANCH  36  39
BRANCH  36  65
ATOM     65  CB  LEU A   3      10.061   1.762  22.100  0.00  0.00    +0.034 C 
BRANCH  65  66
ATOM     66  CG  LEU A   3      10.303   2.234  23.549  0.00  0.00    -0.015 C 
ATOM     67  CD2 LEU A   3      11.070   1.160  24.325  0.00  0.00    +0.007 C 
ATOM     68  CD1 LEU A   3      11.075   3.554  23.605  0.00  0.00    +0.007 C 
ENDBRANCH  65  66
ENDBRANCH  36  65
ENDBRANCH  32  36
ENDBRANCH   1  33
BRANCH   1  69
ATOM     69  CB  GLN A   4       7.432  -2.411  25.039  0.00  0.00    +0.041 C 
BRANCH  69  70
ATOM     70  CG  GLN A   4       8.373  -3.199  25.944  0.00  0.00    +0.098 C 
BRANCH  70  71
ATOM     71  CD  GLN A   4       7.565  -4.160  26.789  0.00  0.00    +0.211 C 
ATOM     72  OE1 GLN A   4       6.521  -3.843  27.362  0.00  0.00    -0.276 OA
ATOM     73  NE2 GLN A   4       8.027  -5.440  26.805  0.00  0.00    -0.329 N 
ATOM     74 HE21 GLN A   4       8.908  -5.710  26.383  0.00  0.00    +0.145 HD
ATOM     75 HE22 GLN A   4       7.547  -6.140  27.355  0.00  0.00    +0.145 HD
ENDBRANCH  70  71
ENDBRANCH  69  70
ENDBRANCH   1  69
TORSDOF 28
ENDMDL
MODEL 13
REMARK VINA RESULT:      -5.4      2.427      7.635
REMARK  Name = VRLQAGNA-mmff94.pdb
REMARK  34 active torsions:
REMARK  status: ('A' for Active; 'I' for Inactive)
REMARK    1  A    between atoms: _1  and  _2
REMARK    2  A    between atoms: _2  and  _3
REMARK    3  A    between atoms: _2  and  _5
REMARK    4  A    between atoms: _5  and  _6
REMARK    5  A    between atoms: _5  and  _7
REMARK    6  A    between atoms: _17  and  _18
REMARK    7  A    between atoms: _18  and  _19
REMARK    8  A    between atoms: _18  and  _21
REMARK    9  A    between atoms: _21  and  _22
REMARK   10  A    between atoms: _22  and  _23
REMARK   11  A    between atoms: _23  and  _24
REMARK   12  A    between atoms: _41  and  _42
REMARK   13  A    between atoms: _42  and  _43
REMARK   14  A    between atoms: _42  and  _45
REMARK   15  A    between atoms: _45  and  _46
REMARK   16  A    between atoms: _46  and  _47
REMARK   17  A    between atoms: _46  and  _48
REMARK   18  A    between atoms: _60  and  _61
REMARK   19  A    between atoms: _61  and  _62
REMARK   20  A    between atoms: _61  and  _64
REMARK   21  A    between atoms: _64  and  _65
REMARK   22  A    between atoms: _65  and  _66
REMARK   23  A    between atoms: _77  and  _78
REMARK   24  A    between atoms: _78  and  _79
REMARK   25  A    between atoms: _78  and  _81
REMARK   26  A    between atoms: _87  and  _88
REMARK   27  A    between atoms: _88  and  _89
REMARK   28  A    between atoms: _94  and  _95
REMARK   29  A    between atoms: _95  and  _96
REMARK   30  A    between atoms: _95  and  _98
REMARK   31  A    between atoms: _98  and  _99
REMARK   32  A    between atoms: _108  and  _109
REMARK   33  A    between atoms: _109  and  _110
REMARK   34  A    between atoms: _109  and  _112
REMARK                            x       y       z     vdW  Elec       q    Type
REMARK                         _______ _______ _______ _____ _____    ______ ____
ROOT
ATOM      1  CA  GLN A   4       8.316   0.293  21.214  0.00  0.00    +0.159 C 
ENDROOT
BRANCH   1   2
ATOM      2  C   GLN A   4       8.502   1.174  22.464  0.00  0.00    +0.234 C 
ATOM      3  O   GLN A   4       7.814   1.011  23.471  0.00  0.00    -0.274 OA
ATOM      4  N   ALA A   5       9.444   2.165  22.361  0.00  0.00    -0.303 N 
ATOM      5  H   ALA A   5      10.049   2.240  21.548  0.00  0.00    +0.149 HD
BRANCH   4   6
ATOM      6  CA  ALA A   5       9.751   3.067  23.471  0.00  0.00    +0.156 C 
ATOM      7  CB  ALA A   5      11.227   3.455  23.480  0.00  0.00    +0.038 C 
BRANCH   6   8
ATOM      8  C   ALA A   5       8.865   4.319  23.321  0.00  0.00    +0.233 C 
ATOM      9  N   GLY A   6       7.908   4.237  22.344  0.00  0.00    -0.305 N 
ATOM     10  H   GLY A   6       7.853   3.432  21.725  0.00  0.00    +0.149 HD
ATOM     11  O   ALA A   5       9.011   5.309  24.039  0.00  0.00    -0.274 OA
BRANCH   9  12
ATOM     12  CA  GLY A   6       6.931   5.288  22.127  0.00  0.00    +0.200 C 
BRANCH  12  13
ATOM     13  C   GLY A   6       5.744   5.074  23.067  0.00  0.00    +0.231 C 
ATOM     14  O   GLY A   6       5.642   5.661  24.143  0.00  0.00    -0.274 OA
ATOM     15  N   ASN A   7       4.817   4.165  22.623  0.00  0.00    -0.302 N 
ATOM     16  H   ASN A   7       4.967   3.650  21.758  0.00  0.00    +0.150 HD
BRANCH  15  17
ATOM     17  CA  ASN A   7       3.579   3.878  23.347  0.00  0.00    +0.168 C 
BRANCH  17  18
ATOM     18  C   ASN A   7       3.940   2.903  24.482  0.00  0.00    +0.234 C 
ATOM     19  N   ALA A   8       3.362   3.181  25.696  0.00  0.00    -0.305 N 
ATOM     20  H   ALA A   8       2.715   3.957  25.804  0.00  0.00    +0.149 HD
ATOM     21  O   ASN A   7       4.667   1.926  24.299  0.00  0.00    -0.274 OA
BRANCH  19  22
ATOM     22  CA  ALA A   8       3.508   2.304  26.852  0.00  0.00    +0.133 C 
ATOM     23  CB  ALA A   8       3.659   3.085  28.148  0.00  0.00    +0.035 C 
BRANCH  22  24
ATOM     24  C   ALA A   8       2.266   1.428  26.926  0.00  0.00    +0.245 C 
ATOM     25  O   ALA A   8       1.866   0.913  27.971  0.00  0.00    -0.299 OA
ENDBRANCH  22  24
ENDBRANCH  19  22
ENDBRANCH  17  18
BRANCH  17  26
ATOM     26  CB  ASN A   7       2.519   3.231  22.457  0.00  0.00    +0.127 C 
BRANCH  26  27
ATOM     27  CG  ASN A   7       2.815   3.361  20.985  0.00  0.00    +0.213 C 
ATOM     28  OD1 ASN A   7       3.492   2.544  20.369  0.00  0.00    -0.276 OA
ATOM     29  ND2 ASN A   7       2.262   4.432  20.351  0.00  0.00    -0.329 N 
ATOM     30 HD21 ASN A   7       2.559   4.556  19.390  0.00  0.00    +0.145 HD
ATOM     31 HD22 ASN A   7       2.048   5.284  20.850  0.00  0.00    +0.145 HD
ENDBRANCH  26  27
ENDBRANCH  17  26
ENDBRANCH  15  17
ENDBRANCH  12  13
ENDBRANCH   9  12
ENDBRANCH   6   8
ENDBRANCH   4   6
ENDBRANCH   1   2
BRANCH   1  33
ATOM     32  C   LEU A   3       8.522  -2.058  22.009  0.00  0.00    +0.234 C 
ATOM     33  N   GLN A   4       7.751  -0.969  21.690  0.00  0.00    -0.302 N 
ATOM     34  H   GLN A   4       6.734  -1.019  21.731  0.00  0.00    +0.150 HD
ATOM     35  O   LEU A   3       9.751  -2.051  21.905  0.00  0.00    -0.274 OA
BRANCH  32  36
ATOM     36  CA  LEU A   3       7.731  -3.299  22.476  0.00  0.00    +0.159 C 
BRANCH  36  39
ATOM     37  C   ARG A   2       8.021  -3.354  24.945  0.00  0.00    +0.234 C 
ATOM     38  O   ARG A   2       9.060  -4.009  24.895  0.00  0.00    -0.274 OA
ATOM     39  N   LEU A   3       7.285  -3.017  23.836  0.00  0.00    -0.302 N 
ATOM     40  H   LEU A   3       6.489  -2.394  23.926  0.00  0.00    +0.150 HD
BRANCH  37  41
ATOM     41  CA  ARG A   2       7.466  -2.810  26.271  0.00  0.00    +0.159 C 
BRANCH  41  43
ATOM     42  C   VAL A   1       5.870  -4.638  26.772  0.00  0.00    +0.231 C 
ATOM     43  N   ARG A   2       7.040  -3.971  27.041  0.00  0.00    -0.303 N 
ATOM     44  H   ARG A   2       7.685  -4.325  27.744  0.00  0.00    +0.149 HD
ATOM     45  O   VAL A   1       5.059  -4.235  25.940  0.00  0.00    -0.274 OA
BRANCH  42  46
ATOM     46  CA  VAL A   1       5.659  -5.928  27.604  0.00  0.00    +0.140 C 
BRANCH  46  47
ATOM     47  N   VAL A   1       6.737  -6.003  28.612  0.00  0.00    -0.320 NA
ATOM     48  H1  VAL A   1       6.318  -6.103  29.537  0.00  0.00    +0.119 HD
ATOM     49  H2  VAL A   1       7.236  -6.885  28.463  0.00  0.00    +0.119 HD
ENDBRANCH  46  47
BRANCH  46  50
ATOM     50  CB  VAL A   1       4.263  -5.938  28.276  0.00  0.00    +0.009 C 
ATOM     51  CG2 VAL A   1       3.171  -6.461  27.332  0.00  0.00    +0.009 C 
ATOM     52  CG1 VAL A   1       4.255  -6.788  29.553  0.00  0.00    +0.009 C 
ENDBRANCH  46  50
ENDBRANCH  42  46
ENDBRANCH  41  43
BRANCH  41  53
ATOM     53  CB  ARG A   2       8.539  -2.013  27.027  0.00  0.00    +0.035 C 
BRANCH  53  54
ATOM     54  CG  ARG A   2       8.547  -0.524  26.672  0.00  0.00    +0.039 C 
BRANCH  54  55
ATOM     55  CD  ARG A   2       7.199   0.134  26.956  0.00  0.00    +0.196 C 
BRANCH  55  56
ATOM     56  NE  ARG A   2       7.108   1.441  26.285  0.00  0.00    -0.279 N 
ATOM     57  HE  ARG A   2       7.008   1.475  25.273  0.00  0.00    +0.258 HD
ATOM     58  CZ  ARG A   2       7.146   2.625  26.912  0.00  0.00    +0.341 C 
ATOM     59  NH2 ARG A   2       7.114   3.750  26.202  0.00  0.00    -0.292 N 
ATOM     60 HH21 ARG A   2       7.208   3.729  25.177  0.00  0.00    +0.255 HD
ATOM     61 HH22 ARG A   2       7.101   4.664  26.627  0.00  0.00    +0.255 HD
ATOM     62  NH1 ARG A   2       7.222   2.714  28.244  0.00  0.00    -0.292 N 
ATOM     63 HH11 ARG A   2       7.256   1.888  28.824  0.00  0.00    +0.255 HD
ATOM     64 HH12 ARG A   2       7.258   3.610  28.710  0.00  0.00    +0.255 HD
ENDBRANCH  55  56
ENDBRANCH  54  55
ENDBRANCH  53  54
ENDBRANCH  41  53
ENDBRANCH  37  41
ENDBRANCH  36  39
BRANCH  36  65
ATOM     65  CB  LEU A   3       6.539  -3.580  21.549  0.00  0.00    +0.034 C 
BRANCH  65  66
ATOM     66  CG  LEU A   3       6.077  -5.051  21.533  0.00  0.00    -0.015 C 
ATOM     67  CD2 LEU A   3       7.256  -5.971  21.862  0.00  0.00    +0.007 C 
ATOM     68  CD1 LEU A   3       4.937  -5.309  22.522  0.00  0.00    +0.007 C 
ENDBRANCH  65  66
ENDBRANCH  36  65
ENDBRANCH  32  36
ENDBRANCH   1  33
BRANCH   1  69
ATOM     69  CB  GLN A   4       7.371   0.958  20.204  0.00  0.00    +0.041 C 
BRANCH  69  70
ATOM     70  CG  GLN A   4       7.387   0.281  18.837  0.00  0.00    +0.098 C 
BRANCH  70  71
ATOM     71  CD  GLN A   4       6.080  -0.452  18.628  0.00  0.00    +0.211 C 
ATOM     72  OE1 GLN A   4       5.630  -1.273  19.429  0.00  0.00    -0.276 OA
ATOM     73  NE2 GLN A   4       5.380  -0.076  17.523  0.00  0.00    -0.329 N 
ATOM     74 HE21 GLN A   4       5.754   0.559  16.827  0.00  0.00    +0.145 HD
ATOM     75 HE22 GLN A   4       4.501  -0.528  17.309  0.00  0.00    +0.145 HD
ENDBRANCH  70  71
ENDBRANCH  69  70
ENDBRANCH   1  69
TORSDOF 28
ENDMDL
MODEL 14
REMARK VINA RESULT:      -5.4      2.573      7.573
REMARK  Name = VRLQAGNA-mmff94.pdb
REMARK  34 active torsions:
REMARK  status: ('A' for Active; 'I' for Inactive)
REMARK    1  A    between atoms: _1  and  _2
REMARK    2  A    between atoms: _2  and  _3
REMARK    3  A    between atoms: _2  and  _5
REMARK    4  A    between atoms: _5  and  _6
REMARK    5  A    between atoms: _5  and  _7
REMARK    6  A    between atoms: _17  and  _18
REMARK    7  A    between atoms: _18  and  _19
REMARK    8  A    between atoms: _18  and  _21
REMARK    9  A    between atoms: _21  and  _22
REMARK   10  A    between atoms: _22  and  _23
REMARK   11  A    between atoms: _23  and  _24
REMARK   12  A    between atoms: _41  and  _42
REMARK   13  A    between atoms: _42  and  _43
REMARK   14  A    between atoms: _42  and  _45
REMARK   15  A    between atoms: _45  and  _46
REMARK   16  A    between atoms: _46  and  _47
REMARK   17  A    between atoms: _46  and  _48
REMARK   18  A    between atoms: _60  and  _61
REMARK   19  A    between atoms: _61  and  _62
REMARK   20  A    between atoms: _61  and  _64
REMARK   21  A    between atoms: _64  and  _65
REMARK   22  A    between atoms: _65  and  _66
REMARK   23  A    between atoms: _77  and  _78
REMARK   24  A    between atoms: _78  and  _79
REMARK   25  A    between atoms: _78  and  _81
REMARK   26  A    between atoms: _87  and  _88
REMARK   27  A    between atoms: _88  and  _89
REMARK   28  A    between atoms: _94  and  _95
REMARK   29  A    between atoms: _95  and  _96
REMARK   30  A    between atoms: _95  and  _98
REMARK   31  A    between atoms: _98  and  _99
REMARK   32  A    between atoms: _108  and  _109
REMARK   33  A    between atoms: _109  and  _110
REMARK   34  A    between atoms: _109  and  _112
REMARK                            x       y       z     vdW  Elec       q    Type
REMARK                         _______ _______ _______ _____ _____    ______ ____
ROOT
ATOM      1  CA  GLN A   4       4.215   3.312  21.464  0.00  0.00    +0.159 C 
ENDROOT
BRANCH   1   2
ATOM      2  C   GLN A   4       4.222   3.616  22.974  0.00  0.00    +0.234 C 
ATOM      3  O   GLN A   4       3.891   2.767  23.800  0.00  0.00    -0.274 OA
ATOM      4  N   ALA A   5       4.579   4.893  23.323  0.00  0.00    -0.303 N 
ATOM      5  H   ALA A   5       4.915   5.558  22.633  0.00  0.00    +0.149 HD
BRANCH   4   6
ATOM      6  CA  ALA A   5       4.655   5.327  24.718  0.00  0.00    +0.156 C 
ATOM      7  CB  ALA A   5       3.463   4.819  25.523  0.00  0.00    +0.038 C 
BRANCH   6   8
ATOM      8  C   ALA A   5       5.973   4.789  25.308  0.00  0.00    +0.233 C 
ATOM      9  N   GLY A   6       5.860   3.612  26.001  0.00  0.00    -0.305 N 
ATOM     10  H   GLY A   6       4.954   3.182  26.166  0.00  0.00    +0.149 HD
ATOM     11  O   ALA A   5       7.044   5.379  25.154  0.00  0.00    -0.274 OA
BRANCH   9  12
ATOM     12  CA  GLY A   6       7.015   2.920  26.545  0.00  0.00    +0.200 C 
BRANCH  12  13
ATOM     13  C   GLY A   6       7.387   1.759  25.622  0.00  0.00    +0.231 C 
ATOM     14  O   GLY A   6       6.810   1.556  24.555  0.00  0.00    -0.274 OA
ATOM     15  N   ASN A   7       8.397   0.957  26.088  0.00  0.00    -0.302 N 
ATOM     16  H   ASN A   7       8.807   1.117  27.005  0.00  0.00    +0.150 HD
BRANCH  15  17
ATOM     17  CA  ASN A   7       8.942  -0.160  25.316  0.00  0.00    +0.168 C 
BRANCH  17  18
ATOM     18  C   ASN A   7       8.942  -1.387  26.245  0.00  0.00    +0.234 C 
ATOM     19  N   ALA A   8       8.931  -2.603  25.607  0.00  0.00    -0.305 N 
ATOM     20  H   ALA A   8       8.960  -2.664  24.592  0.00  0.00    +0.149 HD
ATOM     21  O   ASN A   7       8.985  -1.281  27.471  0.00  0.00    -0.274 OA
BRANCH  19  22
ATOM     22  CA  ALA A   8       9.037  -3.867  26.326  0.00  0.00    +0.133 C 
ATOM     23  CB  ALA A   8       7.698  -4.321  26.886  0.00  0.00    +0.035 C 
BRANCH  22  24
ATOM     24  C   ALA A   8       9.562  -4.910  25.350  0.00  0.00    +0.245 C 
ATOM     25  O   ALA A   8       8.933  -5.281  24.358  0.00  0.00    -0.299 OA
ENDBRANCH  22  24
ENDBRANCH  19  22
ENDBRANCH  17  18
BRANCH  17  26
ATOM     26  CB  ASN A   7      10.369   0.100  24.839  0.00  0.00    +0.127 C 
BRANCH  26  27
ATOM     27  CG  ASN A   7      10.463   1.193  23.805  0.00  0.00    +0.213 C 
ATOM     28  OD1 ASN A   7      10.603   2.375  24.098  0.00  0.00    -0.276 OA
ATOM     29  ND2 ASN A   7      10.412   0.796  22.502  0.00  0.00    -0.329 N 
ATOM     30 HD21 ASN A   7      10.371   1.552  21.830  0.00  0.00    +0.145 HD
ATOM     31 HD22 ASN A   7       9.932  -0.051  22.230  0.00  0.00    +0.145 HD
ENDBRANCH  26  27
ENDBRANCH  17  26
ENDBRANCH  15  17
ENDBRANCH  12  13
ENDBRANCH   9  12
ENDBRANCH   6   8
ENDBRANCH   4   6
ENDBRANCH   1   2
BRANCH   1  33
ATOM     32  C   LEU A   3       6.510   2.343  21.443  0.00  0.00    +0.234 C 
ATOM     33  N   GLN A   4       5.155   2.208  21.269  0.00  0.00    -0.302 N 
ATOM     34  H   GLN A   4       4.755   1.327  20.948  0.00  0.00    +0.150 HD
ATOM     35  O   LEU A   3       7.031   3.413  21.767  0.00  0.00    -0.274 OA
BRANCH  32  36
ATOM     36  CA  LEU A   3       7.329   1.063  21.173  0.00  0.00    +0.159 C 
BRANCH  36  39
ATOM     37  C   ARG A   2       7.288  -1.163  22.281  0.00  0.00    +0.234 C 
ATOM     38  O   ARG A   2       8.459  -1.419  22.005  0.00  0.00    -0.274 OA
ATOM     39  N   LEU A   3       6.646  -0.020  21.872  0.00  0.00    -0.302 N 
ATOM     40  H   LEU A   3       5.711   0.184  22.209  0.00  0.00    +0.150 HD
BRANCH  37  41
ATOM     41  CA  ARG A   2       6.438  -2.097  23.156  0.00  0.00    +0.159 C 
BRANCH  41  43
ATOM     42  C   VAL A   1       5.269  -1.784  25.319  0.00  0.00    +0.231 C 
ATOM     43  N   ARG A   2       5.837  -1.257  24.184  0.00  0.00    -0.303 N 
ATOM     44  H   ARG A   2       5.922  -0.250  24.071  0.00  0.00    +0.149 HD
ATOM     45  O   VAL A   1       5.134  -2.994  25.486  0.00  0.00    -0.274 OA
BRANCH  42  46
ATOM     46  CA  VAL A   1       4.810  -0.729  26.357  0.00  0.00    +0.140 C 
BRANCH  46  47
ATOM     47  N   VAL A   1       4.444   0.502  25.627  0.00  0.00    -0.320 NA
ATOM     48  H1  VAL A   1       4.140   0.251  24.686  0.00  0.00    +0.119 HD
ATOM     49  H2  VAL A   1       3.604   0.885  26.071  0.00  0.00    +0.119 HD
ENDBRANCH  46  47
BRANCH  46  50
ATOM     50  CB  VAL A   1       3.622  -1.255  27.201  0.00  0.00    +0.009 C 
ATOM     51  CG2 VAL A   1       4.077  -1.807  28.559  0.00  0.00    +0.009 C 
ATOM     52  CG1 VAL A   1       2.572  -0.162  27.443  0.00  0.00    +0.009 C 
ENDBRANCH  46  50
ENDBRANCH  42  46
ENDBRANCH  41  43
BRANCH  41  53
ATOM     53  CB  ARG A   2       5.357  -2.798  22.319  0.00  0.00    +0.035 C 
BRANCH  53  54
ATOM     54  CG  ARG A   2       5.933  -3.717  21.239  0.00  0.00    +0.039 C 
BRANCH  54  55
ATOM     55  CD  ARG A   2       6.544  -4.983  21.837  0.00  0.00    +0.196 C 
BRANCH  55  56
ATOM     56  NE  ARG A   2       5.493  -5.954  22.181  0.00  0.00    -0.279 N 
ATOM     57  HE  ARG A   2       5.001  -6.439  21.434  0.00  0.00    +0.258 HD
ATOM     58  CZ  ARG A   2       5.119  -6.263  23.430  0.00  0.00    +0.341 C 
ATOM     59  NH2 ARG A   2       4.115  -7.114  23.627  0.00  0.00    -0.292 N 
ATOM     60 HH21 ARG A   2       3.527  -7.426  22.842  0.00  0.00    +0.255 HD
ATOM     61 HH22 ARG A   2       3.821  -7.409  24.545  0.00  0.00    +0.255 HD
ATOM     62  NH1 ARG A   2       5.724  -5.734  24.498  0.00  0.00    -0.292 N 
ATOM     63 HH11 ARG A   2       6.486  -5.078  24.398  0.00  0.00    +0.255 HD
ATOM     64 HH12 ARG A   2       5.431  -5.965  25.437  0.00  0.00    +0.255 HD
ENDBRANCH  55  56
ENDBRANCH  54  55
ENDBRANCH  53  54
ENDBRANCH  41  53
ENDBRANCH  37  41
ENDBRANCH  36  39
BRANCH  36  65
ATOM     65  CB  LEU A   3       7.430   0.775  19.668  0.00  0.00    +0.034 C 
BRANCH  65  66
ATOM     66  CG  LEU A   3       6.086   0.421  18.997  0.00  0.00    -0.015 C 
ATOM     67  CD2 LEU A   3       5.875   1.300  17.761  0.00  0.00    +0.007 C 
ATOM     68  CD1 LEU A   3       6.012  -1.053  18.594  0.00  0.00    +0.007 C 
ENDBRANCH  65  66
ENDBRANCH  36  65
ENDBRANCH  32  36
ENDBRANCH   1  33
BRANCH   1  69
ATOM     69  CB  GLN A   4       2.812   2.913  20.986  0.00  0.00    +0.041 C 
BRANCH  69  70
ATOM     70  CG  GLN A   4       1.895   4.110  20.761  0.00  0.00    +0.098 C 
BRANCH  70  71
ATOM     71  CD  GLN A   4       1.956   4.519  19.305  0.00  0.00    +0.211 C 
ATOM     72  OE1 GLN A   4       1.643   5.641  18.904  0.00  0.00    -0.276 OA
ATOM     73  NE2 GLN A   4       2.471   3.579  18.465  0.00  0.00    -0.329 N 
ATOM     74 HE21 GLN A   4       2.687   2.636  18.766  0.00  0.00    +0.145 HD
ATOM     75 HE22 GLN A   4       2.536   3.773  17.475  0.00  0.00    +0.145 HD
ENDBRANCH  70  71
ENDBRANCH  69  70
ENDBRANCH   1  69
TORSDOF 28
ENDMDL
MODEL 15
REMARK VINA RESULT:      -5.4      1.492      2.018
REMARK  Name = VRLQAGNA-mmff94.pdb
REMARK  34 active torsions:
REMARK  status: ('A' for Active; 'I' for Inactive)
REMARK    1  A    between atoms: _1  and  _2
REMARK    2  A    between atoms: _2  and  _3
REMARK    3  A    between atoms: _2  and  _5
REMARK    4  A    between atoms: _5  and  _6
REMARK    5  A    between atoms: _5  and  _7
REMARK    6  A    between atoms: _17  and  _18
REMARK    7  A    between atoms: _18  and  _19
REMARK    8  A    between atoms: _18  and  _21
REMARK    9  A    between atoms: _21  and  _22
REMARK   10  A    between atoms: _22  and  _23
REMARK   11  A    between atoms: _23  and  _24
REMARK   12  A    between atoms: _41  and  _42
REMARK   13  A    between atoms: _42  and  _43
REMARK   14  A    between atoms: _42  and  _45
REMARK   15  A    between atoms: _45  and  _46
REMARK   16  A    between atoms: _46  and  _47
REMARK   17  A    between atoms: _46  and  _48
REMARK   18  A    between atoms: _60  and  _61
REMARK   19  A    between atoms: _61  and  _62
REMARK   20  A    between atoms: _61  and  _64
REMARK   21  A    between atoms: _64  and  _65
REMARK   22  A    between atoms: _65  and  _66
REMARK   23  A    between atoms: _77  and  _78
REMARK   24  A    between atoms: _78  and  _79
REMARK   25  A    between atoms: _78  and  _81
REMARK   26  A    between atoms: _87  and  _88
REMARK   27  A    between atoms: _88  and  _89
REMARK   28  A    between atoms: _94  and  _95
REMARK   29  A    between atoms: _95  and  _96
REMARK   30  A    between atoms: _95  and  _98
REMARK   31  A    between atoms: _98  and  _99
REMARK   32  A    between atoms: _108  and  _109
REMARK   33  A    between atoms: _109  and  _110
REMARK   34  A    between atoms: _109  and  _112
REMARK                            x       y       z     vdW  Elec       q    Type
REMARK                         _______ _______ _______ _____ _____    ______ ____
ROOT
ATOM      1  CA  GLN A   4       9.614  -0.905  23.859  0.00  0.00    +0.159 C 
ENDROOT
BRANCH   1   2
ATOM      2  C   GLN A   4       9.360  -2.422  23.938  0.00  0.00    +0.234 C 
ATOM      3  O   GLN A   4       9.442  -3.138  22.940  0.00  0.00    -0.274 OA
ATOM      4  N   ALA A   5       9.003  -2.904  25.171  0.00  0.00    -0.303 N 
ATOM      5  H   ALA A   5       9.009  -2.311  25.995  0.00  0.00    +0.149 HD
BRANCH   4   6
ATOM      6  CA  ALA A   5       8.753  -4.326  25.409  0.00  0.00    +0.156 C 
ATOM      7  CB  ALA A   5       9.986  -5.018  25.982  0.00  0.00    +0.038 C 
BRANCH   6   8
ATOM      8  C   ALA A   5       7.567  -4.439  26.387  0.00  0.00    +0.233 C 
ATOM      9  N   GLY A   6       7.229  -5.718  26.742  0.00  0.00    -0.305 N 
ATOM     10  H   GLY A   6       7.690  -6.522  26.322  0.00  0.00    +0.149 HD
ATOM     11  O   ALA A   5       6.980  -3.444  26.816  0.00  0.00    -0.274 OA
BRANCH   9  12
ATOM     12  CA  GLY A   6       6.197  -6.003  27.722  0.00  0.00    +0.200 C 
BRANCH  12  13
ATOM     13  C   GLY A   6       4.852  -6.149  27.010  0.00  0.00    +0.231 C 
ATOM     14  O   GLY A   6       3.973  -6.909  27.413  0.00  0.00    -0.274 OA
ATOM     15  N   ASN A   7       4.715  -5.383  25.880  0.00  0.00    -0.302 N 
ATOM     16  H   ASN A   7       5.488  -4.815  25.540  0.00  0.00    +0.150 HD
BRANCH  15  17
ATOM     17  CA  ASN A   7       3.477  -5.332  25.103  0.00  0.00    +0.168 C 
BRANCH  17  18
ATOM     18  C   ASN A   7       3.881  -5.153  23.629  0.00  0.00    +0.234 C 
ATOM     19  N   ALA A   8       5.075  -4.506  23.425  0.00  0.00    -0.305 N 
ATOM     20  H   ALA A   8       5.653  -4.211  24.208  0.00  0.00    +0.149 HD
ATOM     21  O   ASN A   7       3.195  -5.591  22.704  0.00  0.00    -0.274 OA
BRANCH  19  22
ATOM     22  CA  ALA A   8       5.662  -4.345  22.100  0.00  0.00    +0.133 C 
ATOM     23  CB  ALA A   8       6.122  -2.918  21.848  0.00  0.00    +0.035 C 
BRANCH  22  24
ATOM     24  C   ALA A   8       6.853  -5.288  22.007  0.00  0.00    +0.245 C 
ATOM     25  O   ALA A   8       6.739  -6.514  21.959  0.00  0.00    -0.299 OA
ENDBRANCH  22  24
ENDBRANCH  19  22
ENDBRANCH  17  18
BRANCH  17  26
ATOM     26  CB  ASN A   7       2.576  -4.168  25.514  0.00  0.00    +0.127 C 
BRANCH  26  27
ATOM     27  CG  ASN A   7       3.340  -2.985  26.053  0.00  0.00    +0.213 C 
ATOM     28  OD1 ASN A   7       4.080  -2.300  25.355  0.00  0.00    -0.276 OA
ATOM     29  ND2 ASN A   7       3.143  -2.687  27.367  0.00  0.00    -0.329 N 
ATOM     30 HD21 ASN A   7       3.743  -1.957  27.731  0.00  0.00    +0.145 HD
ATOM     31 HD22 ASN A   7       2.878  -3.400  28.033  0.00  0.00    +0.145 HD
ENDBRANCH  26  27
ENDBRANCH  17  26
ENDBRANCH  15  17
ENDBRANCH  12  13
ENDBRANCH   9  12
ENDBRANCH   6   8
ENDBRANCH   4   6
ENDBRANCH   1   2
BRANCH   1  33
ATOM     32  C   LEU A   3       8.634   0.460  22.021  0.00  0.00    +0.234 C 
ATOM     33  N   GLN A   4       8.481  -0.344  23.123  0.00  0.00    -0.302 N 
ATOM     34  H   GLN A   4       7.556  -0.543  23.500  0.00  0.00    +0.150 HD
ATOM     35  O   LEU A   3       9.742   0.775  21.580  0.00  0.00    -0.274 OA
BRANCH  32  36
ATOM     36  CA  LEU A   3       7.313   0.963  21.398  0.00  0.00    +0.159 C 
BRANCH  36  39
ATOM     37  C   ARG A   2       6.445   2.548  23.106  0.00  0.00    +0.234 C 
ATOM     38  O   ARG A   2       5.902   1.669  23.772  0.00  0.00    -0.274 OA
ATOM     39  N   LEU A   3       7.096   2.308  21.921  0.00  0.00    -0.302 N 
ATOM     40  H   LEU A   3       7.608   3.055  21.463  0.00  0.00    +0.150 HD
BRANCH  37  41
ATOM     41  CA  ARG A   2       6.478   4.013  23.568  0.00  0.00    +0.159 C 
BRANCH  41  43
ATOM     42  C   VAL A   1       4.329   5.214  23.291  0.00  0.00    +0.231 C 
ATOM     43  N   ARG A   2       5.122   4.339  23.991  0.00  0.00    -0.303 N 
ATOM     44  H   ARG A   2       4.749   3.829  24.788  0.00  0.00    +0.149 HD
ATOM     45  O   VAL A   1       4.747   5.859  22.331  0.00  0.00    -0.274 OA
BRANCH  42  46
ATOM     46  CA  VAL A   1       2.875   5.324  23.815  0.00  0.00    +0.140 C 
BRANCH  46  47
ATOM     47  N   VAL A   1       1.971   4.800  22.769  0.00  0.00    -0.320 NA
ATOM     48  H1  VAL A   1       1.120   5.362  22.756  0.00  0.00    +0.119 HD
ATOM     49  H2  VAL A   1       2.410   4.983  21.862  0.00  0.00    +0.119 HD
ENDBRANCH  46  47
BRANCH  46  50
ATOM     50  CB  VAL A   1       2.699   4.551  25.146  0.00  0.00    +0.009 C 
ATOM     51  CG2 VAL A   1       2.479   5.494  26.337  0.00  0.00    +0.009 C 
ATOM     52  CG1 VAL A   1       1.526   3.564  25.078  0.00  0.00    +0.009 C 
ENDBRANCH  46  50
ENDBRANCH  42  46
ENDBRANCH  41  43
BRANCH  41  53
ATOM     53  CB  ARG A   2       7.473   4.199  24.724  0.00  0.00    +0.035 C 
BRANCH  53  54
ATOM     54  CG  ARG A   2       8.264   5.507  24.634  0.00  0.00    +0.039 C 
BRANCH  54  55
ATOM     55  CD  ARG A   2       8.962   5.657  23.285  0.00  0.00    +0.196 C 
BRANCH  55  56
ATOM     56  NE  ARG A   2      10.424   5.672  23.455  0.00  0.00    -0.279 N 
ATOM     57  HE  ARG A   2      10.889   6.547  23.686  0.00  0.00    +0.258 HD
ATOM     58  CZ  ARG A   2      11.218   4.599  23.330  0.00  0.00    +0.341 C 
ATOM     59  NH2 ARG A   2      12.536   4.736  23.447  0.00  0.00    -0.292 N 
ATOM     60 HH21 ARG A   2      12.967   5.669  23.488  0.00  0.00    +0.255 HD
ATOM     61 HH22 ARG A   2      13.172   3.956  23.400  0.00  0.00    +0.255 HD
ATOM     62  NH1 ARG A   2      10.723   3.383  23.081  0.00  0.00    -0.292 N 
ATOM     63 HH11 ARG A   2       9.729   3.232  22.976  0.00  0.00    +0.255 HD
ATOM     64 HH12 ARG A   2      11.328   2.580  22.979  0.00  0.00    +0.255 HD
ENDBRANCH  55  56
ENDBRANCH  54  55
ENDBRANCH  53  54
ENDBRANCH  41  53
ENDBRANCH  37  41
ENDBRANCH  36  39
BRANCH  36  65
ATOM     65  CB  LEU A   3       7.390   0.971  19.864  0.00  0.00    +0.034 C 
BRANCH  65  66
ATOM     66  CG  LEU A   3       6.069   0.598  19.159  0.00  0.00    -0.015 C 
ATOM     67  CD2 LEU A   3       5.958   1.352  17.831  0.00  0.00    +0.007 C 
ATOM     68  CD1 LEU A   3       5.955  -0.906  18.904  0.00  0.00    +0.007 C 
ENDBRANCH  65  66
ENDBRANCH  36  65
ENDBRANCH  32  36
ENDBRANCH   1  33
BRANCH   1  69
ATOM     69  CB  GLN A   4       9.703  -0.285  25.261  0.00  0.00    +0.041 C 
BRANCH  69  70
ATOM     70  CG  GLN A   4       8.576   0.701  25.550  0.00  0.00    +0.098 C 
BRANCH  70  71
ATOM     71  CD  GLN A   4       7.610   0.079  26.535  0.00  0.00    +0.211 C 
ATOM     72  OE1 GLN A   4       7.739   0.169  27.757  0.00  0.00    -0.276 OA
ATOM     73  NE2 GLN A   4       6.524  -0.522  25.975  0.00  0.00    -0.329 N 
ATOM     74 HE21 GLN A   4       6.424  -0.650  24.975  0.00  0.00    +0.145 HD
ATOM     75 HE22 GLN A   4       5.837  -0.970  26.567  0.00  0.00    +0.145 HD
ENDBRANCH  70  71
ENDBRANCH  69  70
ENDBRANCH   1  69
TORSDOF 28
ENDMDL
MODEL 16
REMARK VINA RESULT:      -5.4      2.136      8.365
REMARK  Name = VRLQAGNA-mmff94.pdb
REMARK  34 active torsions:
REMARK  status: ('A' for Active; 'I' for Inactive)
REMARK    1  A    between atoms: _1  and  _2
REMARK    2  A    between atoms: _2  and  _3
REMARK    3  A    between atoms: _2  and  _5
REMARK    4  A    between atoms: _5  and  _6
REMARK    5  A    between atoms: _5  and  _7
REMARK    6  A    between atoms: _17  and  _18
REMARK    7  A    between atoms: _18  and  _19
REMARK    8  A    between atoms: _18  and  _21
REMARK    9  A    between atoms: _21  and  _22
REMARK   10  A    between atoms: _22  and  _23
REMARK   11  A    between atoms: _23  and  _24
REMARK   12  A    between atoms: _41  and  _42
REMARK   13  A    between atoms: _42  and  _43
REMARK   14  A    between atoms: _42  and  _45
REMARK   15  A    between atoms: _45  and  _46
REMARK   16  A    between atoms: _46  and  _47
REMARK   17  A    between atoms: _46  and  _48
REMARK   18  A    between atoms: _60  and  _61
REMARK   19  A    between atoms: _61  and  _62
REMARK   20  A    between atoms: _61  and  _64
REMARK   21  A    between atoms: _64  and  _65
REMARK   22  A    between atoms: _65  and  _66
REMARK   23  A    between atoms: _77  and  _78
REMARK   24  A    between atoms: _78  and  _79
REMARK   25  A    between atoms: _78  and  _81
REMARK   26  A    between atoms: _87  and  _88
REMARK   27  A    between atoms: _88  and  _89
REMARK   28  A    between atoms: _94  and  _95
REMARK   29  A    between atoms: _95  and  _96
REMARK   30  A    between atoms: _95  and  _98
REMARK   31  A    between atoms: _98  and  _99
REMARK   32  A    between atoms: _108  and  _109
REMARK   33  A    between atoms: _109  and  _110
REMARK   34  A    between atoms: _109  and  _112
REMARK                            x       y       z     vdW  Elec       q    Type
REMARK                         _______ _______ _______ _____ _____    ______ ____
ROOT
ATOM      1  CA  GLN A   4       5.587   1.169  25.553  0.00  0.00    +0.159 C 
ENDROOT
BRANCH   1   2
ATOM      2  C   GLN A   4       4.650   2.052  24.707  0.00  0.00    +0.234 C 
ATOM      3  O   GLN A   4       3.514   2.331  25.089  0.00  0.00    -0.274 OA
ATOM      4  N   ALA A   5       5.150   2.463  23.498  0.00  0.00    -0.303 N 
ATOM      5  H   ALA A   5       6.112   2.280  23.231  0.00  0.00    +0.149 HD
BRANCH   4   6
ATOM      6  CA  ALA A   5       4.388   3.325  22.593  0.00  0.00    +0.156 C 
ATOM      7  CB  ALA A   5       4.984   4.728  22.531  0.00  0.00    +0.038 C 
BRANCH   6   8
ATOM      8  C   ALA A   5       4.400   2.672  21.197  0.00  0.00    +0.233 C 
ATOM      9  N   GLY A   6       5.581   2.070  20.849  0.00  0.00    -0.305 N 
ATOM     10  H   GLY A   6       6.400   2.128  21.449  0.00  0.00    +0.149 HD
ATOM     11  O   ALA A   5       3.412   2.689  20.462  0.00  0.00    -0.274 OA
BRANCH   9  12
ATOM     12  CA  GLY A   6       5.737   1.331  19.610  0.00  0.00    +0.200 C 
BRANCH  12  13
ATOM     13  C   GLY A   6       7.005   0.480  19.687  0.00  0.00    +0.231 C 
ATOM     14  O   GLY A   6       7.644   0.158  18.686  0.00  0.00    -0.274 OA
ATOM     15  N   ASN A   7       7.358   0.089  20.954  0.00  0.00    -0.302 N 
ATOM     16  H   ASN A   7       6.770   0.319  21.751  0.00  0.00    +0.150 HD
BRANCH  15  17
ATOM     17  CA  ASN A   7       8.576  -0.668  21.239  0.00  0.00    +0.168 C 
BRANCH  17  18
ATOM     18  C   ASN A   7       8.151  -1.920  22.027  0.00  0.00    +0.234 C 
ATOM     19  N   ALA A   8       6.823  -2.253  21.920  0.00  0.00    -0.305 N 
ATOM     20  H   ALA A   8       6.193  -1.720  21.326  0.00  0.00    +0.149 HD
ATOM     21  O   ASN A   7       8.954  -2.589  22.677  0.00  0.00    -0.274 OA
BRANCH  19  22
ATOM     22  CA  ALA A   8       6.270  -3.466  22.512  0.00  0.00    +0.133 C 
ATOM     23  CB  ALA A   8       5.104  -3.169  23.441  0.00  0.00    +0.035 C 
BRANCH  22  24
ATOM     24  C   ALA A   8       5.800  -4.361  21.374  0.00  0.00    +0.245 C 
ATOM     25  O   ALA A   8       5.589  -5.567  21.509  0.00  0.00    -0.299 OA
ENDBRANCH  22  24
ENDBRANCH  19  22
ENDBRANCH  17  18
BRANCH  17  26
ATOM     26  CB  ASN A   7       9.577   0.127  22.076  0.00  0.00    +0.127 C 
BRANCH  26  27
ATOM     27  CG  ASN A   7       9.279   1.605  22.116  0.00  0.00    +0.213 C 
ATOM     28  OD1 ASN A   7       8.216   2.057  22.525  0.00  0.00    -0.276 OA
ATOM     29  ND2 ASN A   7      10.277   2.432  21.695  0.00  0.00    -0.329 N 
ATOM     30 HD21 ASN A   7      10.018   3.410  21.632  0.00  0.00    +0.145 HD
ATOM     31 HD22 ASN A   7      10.967   2.124  21.025  0.00  0.00    +0.145 HD
ENDBRANCH  26  27
ENDBRANCH  17  26
ENDBRANCH  15  17
ENDBRANCH  12  13
ENDBRANCH   9  12
ENDBRANCH   6   8
ENDBRANCH   4   6
ENDBRANCH   1   2
BRANCH   1  33
ATOM     32  C   LEU A   3       5.098   0.289  27.831  0.00  0.00    +0.234 C 
ATOM     33  N   GLN A   4       4.731   0.486  26.523  0.00  0.00    -0.302 N 
ATOM     34  H   GLN A   4       3.851   0.116  26.166  0.00  0.00    +0.150 HD
ATOM     35  O   LEU A   3       6.185   0.665  28.277  0.00  0.00    -0.274 OA
BRANCH  32  36
ATOM     36  CA  LEU A   3       4.060  -0.468  28.689  0.00  0.00    +0.159 C 
BRANCH  36  39
ATOM     37  C   ARG A   2       3.384  -2.858  28.570  0.00  0.00    +0.234 C 
ATOM     38  O   ARG A   2       2.204  -2.627  28.831  0.00  0.00    -0.274 OA
ATOM     39  N   LEU A   3       4.355  -1.888  28.537  0.00  0.00    -0.302 N 
ATOM     40  H   LEU A   3       5.292  -2.120  28.222  0.00  0.00    +0.150 HD
BRANCH  37  41
ATOM     41  CA  ARG A   2       3.875  -4.269  28.211  0.00  0.00    +0.159 C 
BRANCH  41  43
ATOM     42  C   VAL A   1       2.357  -5.574  26.750  0.00  0.00    +0.231 C 
ATOM     43  N   ARG A   2       3.296  -4.585  26.912  0.00  0.00    -0.303 N 
ATOM     44  H   ARG A   2       3.555  -3.987  26.130  0.00  0.00    +0.149 HD
ATOM     45  O   VAL A   1       2.029  -6.325  27.666  0.00  0.00    -0.274 OA
BRANCH  42  46
ATOM     46  CA  VAL A   1       1.759  -5.666  25.324  0.00  0.00    +0.140 C 
BRANCH  46  47
ATOM     47  N   VAL A   1       1.628  -4.293  24.793  0.00  0.00    -0.320 NA
ATOM     48  H1  VAL A   1       0.697  -4.181  24.392  0.00  0.00    +0.119 HD
ATOM     49  H2  VAL A   1       1.640  -3.651  25.592  0.00  0.00    +0.119 HD
ENDBRANCH  46  47
BRANCH  46  50
ATOM     50  CB  VAL A   1       2.644  -6.541  24.402  0.00  0.00    +0.009 C 
ATOM     51  CG2 VAL A   1       2.430  -8.041  24.649  0.00  0.00    +0.009 C 
ATOM     52  CG1 VAL A   1       2.380  -6.247  22.919  0.00  0.00    +0.009 C 
ENDBRANCH  46  50
ENDBRANCH  42  46
ENDBRANCH  41  43
BRANCH  41  53
ATOM     53  CB  ARG A   2       5.409  -4.316  28.155  0.00  0.00    +0.035 C 
BRANCH  53  54
ATOM     54  CG  ARG A   2       5.955  -5.685  27.742  0.00  0.00    +0.039 C 
BRANCH  54  55
ATOM     55  CD  ARG A   2       6.615  -5.642  26.365  0.00  0.00    +0.196 C 
BRANCH  55  56
ATOM     56  NE  ARG A   2       8.079  -5.721  26.488  0.00  0.00    -0.279 N 
ATOM     57  HE  ARG A   2       8.491  -5.957  27.389  0.00  0.00    +0.258 HD
ATOM     58  CZ  ARG A   2       8.942  -5.504  25.486  0.00  0.00    +0.341 C 
ATOM     59  NH2 ARG A   2      10.251  -5.545  25.721  0.00  0.00    -0.292 N 
ATOM     60 HH21 ARG A   2      10.612  -5.595  26.683  0.00  0.00    +0.255 HD
ATOM     61 HH22 ARG A   2      10.940  -5.427  24.995  0.00  0.00    +0.255 HD
ATOM     62  NH1 ARG A   2       8.526  -5.238  24.244  0.00  0.00    -0.292 N 
ATOM     63 HH11 ARG A   2       7.541  -5.190  24.019  0.00  0.00    +0.255 HD
ATOM     64 HH12 ARG A   2       9.182  -5.068  23.494  0.00  0.00    +0.255 HD
ENDBRANCH  55  56
ENDBRANCH  54  55
ENDBRANCH  53  54
ENDBRANCH  41  53
ENDBRANCH  37  41
ENDBRANCH  36  39
BRANCH  36  65
ATOM     65  CB  LEU A   3       4.137  -0.039  30.161  0.00  0.00    +0.034 C 
BRANCH  65  66
ATOM     66  CG  LEU A   3       3.071   0.995  30.580  0.00  0.00    -0.015 C 
ATOM     67  CD2 LEU A   3       3.680   2.399  30.579  0.00  0.00    +0.007 C 
ATOM     68  CD1 LEU A   3       1.848   0.968  29.662  0.00  0.00    +0.007 C 
ENDBRANCH  65  66
ENDBRANCH  36  65
ENDBRANCH  32  36
ENDBRANCH   1  33
BRANCH   1  69
ATOM     69  CB  GLN A   4       6.325   0.148  24.677  0.00  0.00    +0.041 C 
BRANCH  69  70
ATOM     70  CG  GLN A   4       7.734  -0.159  25.176  0.00  0.00    +0.098 C 
BRANCH  70  71
ATOM     71  CD  GLN A   4       7.746  -1.527  25.824  0.00  0.00    +0.211 C 
ATOM     72  OE1 GLN A   4       6.737  -2.072  26.272  0.00  0.00    -0.276 OA
ATOM     73  NE2 GLN A   4       8.950  -2.163  25.800  0.00  0.00    -0.329 N 
ATOM     74 HE21 GLN A   4       9.801  -1.714  25.482  0.00  0.00    +0.145 HD
ATOM     75 HE22 GLN A   4       9.042  -3.078  26.222  0.00  0.00    +0.145 HD
ENDBRANCH  70  71
ENDBRANCH  69  70
ENDBRANCH   1  69
TORSDOF 28
ENDMDL
MODEL 17
REMARK VINA RESULT:      -5.3      2.175      4.650
REMARK  Name = VRLQAGNA-mmff94.pdb
REMARK  34 active torsions:
REMARK  status: ('A' for Active; 'I' for Inactive)
REMARK    1  A    between atoms: _1  and  _2
REMARK    2  A    between atoms: _2  and  _3
REMARK    3  A    between atoms: _2  and  _5
REMARK    4  A    between atoms: _5  and  _6
REMARK    5  A    between atoms: _5  and  _7
REMARK    6  A    between atoms: _17  and  _18
REMARK    7  A    between atoms: _18  and  _19
REMARK    8  A    between atoms: _18  and  _21
REMARK    9  A    between atoms: _21  and  _22
REMARK   10  A    between atoms: _22  and  _23
REMARK   11  A    between atoms: _23  and  _24
REMARK   12  A    between atoms: _41  and  _42
REMARK   13  A    between atoms: _42  and  _43
REMARK   14  A    between atoms: _42  and  _45
REMARK   15  A    between atoms: _45  and  _46
REMARK   16  A    between atoms: _46  and  _47
REMARK   17  A    between atoms: _46  and  _48
REMARK   18  A    between atoms: _60  and  _61
REMARK   19  A    between atoms: _61  and  _62
REMARK   20  A    between atoms: _61  and  _64
REMARK   21  A    between atoms: _64  and  _65
REMARK   22  A    between atoms: _65  and  _66
REMARK   23  A    between atoms: _77  and  _78
REMARK   24  A    between atoms: _78  and  _79
REMARK   25  A    between atoms: _78  and  _81
REMARK   26  A    between atoms: _87  and  _88
REMARK   27  A    between atoms: _88  and  _89
REMARK   28  A    between atoms: _94  and  _95
REMARK   29  A    between atoms: _95  and  _96
REMARK   30  A    between atoms: _95  and  _98
REMARK   31  A    between atoms: _98  and  _99
REMARK   32  A    between atoms: _108  and  _109
REMARK   33  A    between atoms: _109  and  _110
REMARK   34  A    between atoms: _109  and  _112
REMARK                            x       y       z     vdW  Elec       q    Type
REMARK                         _______ _______ _______ _____ _____    ______ ____
ROOT
ATOM      1  CA  GLN A   4       8.734  -1.894  23.903  0.00  0.00    +0.159 C 
ENDROOT
BRANCH   1   2
ATOM      2  C   GLN A   4       7.960  -2.603  22.775  0.00  0.00    +0.234 C 
ATOM      3  O   GLN A   4       7.622  -2.003  21.755  0.00  0.00    -0.274 OA
ATOM      4  N   ALA A   5       7.644  -3.918  23.004  0.00  0.00    -0.303 N 
ATOM      5  H   ALA A   5       7.991  -4.413  23.819  0.00  0.00    +0.149 HD
BRANCH   4   6
ATOM      6  CA  ALA A   5       6.932  -4.730  22.017  0.00  0.00    +0.156 C 
ATOM      7  CB  ALA A   5       7.496  -6.146  21.953  0.00  0.00    +0.038 C 
BRANCH   6   8
ATOM      8  C   ALA A   5       5.444  -4.760  22.415  0.00  0.00    +0.233 C 
ATOM      9  N   GLY A   6       4.960  -5.995  22.757  0.00  0.00    -0.305 N 
ATOM     10  H   GLY A   6       5.536  -6.829  22.675  0.00  0.00    +0.149 HD
ATOM     11  O   ALA A   5       4.753  -3.740  22.429  0.00  0.00    -0.274 OA
BRANCH   9  12
ATOM     12  CA  GLY A   6       3.606  -6.189  23.244  0.00  0.00    +0.200 C 
BRANCH  12  13
ATOM     13  C   GLY A   6       3.656  -6.821  24.635  0.00  0.00    +0.231 C 
ATOM     14  O   GLY A   6       3.282  -7.974  24.848  0.00  0.00    -0.274 OA
ATOM     15  N   ASN A   7       4.129  -5.996  25.624  0.00  0.00    -0.302 N 
ATOM     16  H   ASN A   7       4.368  -5.028  25.422  0.00  0.00    +0.150 HD
BRANCH  15  17
ATOM     17  CA  ASN A   7       4.319  -6.441  27.004  0.00  0.00    +0.168 C 
BRANCH  17  18
ATOM     18  C   ASN A   7       3.381  -5.592  27.880  0.00  0.00    +0.234 C 
ATOM     19  N   ALA A   8       3.137  -4.323  27.414  0.00  0.00    -0.305 N 
ATOM     20  H   ALA A   8       3.528  -4.003  26.532  0.00  0.00    +0.149 HD
ATOM     21  O   ASN A   7       2.862  -6.035  28.905  0.00  0.00    -0.274 OA
BRANCH  19  22
ATOM     22  CA  ALA A   8       2.191  -3.420  28.060  0.00  0.00    +0.133 C 
ATOM     23  CB  ALA A   8       2.803  -2.710  29.257  0.00  0.00    +0.035 C 
BRANCH  22  24
ATOM     24  C   ALA A   8       1.757  -2.392  27.025  0.00  0.00    +0.245 C 
ATOM     25  O   ALA A   8       2.294  -2.277  25.923  0.00  0.00    -0.299 OA
ENDBRANCH  22  24
ENDBRANCH  19  22
ENDBRANCH  17  18
BRANCH  17  26
ATOM     26  CB  ASN A   7       5.755  -6.252  27.488  0.00  0.00    +0.127 C 
BRANCH  26  27
ATOM     27  CG  ASN A   7       6.664  -5.659  26.440  0.00  0.00    +0.213 C 
ATOM     28  OD1 ASN A   7       6.241  -5.079  25.446  0.00  0.00    -0.276 OA
ATOM     29  ND2 ASN A   7       8.002  -5.774  26.669  0.00  0.00    -0.329 N 
ATOM     30 HD21 ASN A   7       8.590  -5.463  25.905  0.00  0.00    +0.145 HD
ATOM     31 HD22 ASN A   7       8.377  -6.531  27.222  0.00  0.00    +0.145 HD
ENDBRANCH  26  27
ENDBRANCH  17  26
ENDBRANCH  15  17
ENDBRANCH  12  13
ENDBRANCH   9  12
ENDBRANCH   6   8
ENDBRANCH   4   6
ENDBRANCH   1   2
BRANCH   1  33
ATOM     32  C   LEU A   3       9.600   0.413  23.547  0.00  0.00    +0.234 C 
ATOM     33  N   GLN A   4       8.550  -0.461  23.680  0.00  0.00    -0.302 N 
ATOM     34  H   GLN A   4       7.588  -0.126  23.674  0.00  0.00    +0.150 HD
ATOM     35  O   LEU A   3      10.776   0.050  23.617  0.00  0.00    -0.274 OA
BRANCH  32  36
ATOM     36  CA  LEU A   3       9.193   1.888  23.335  0.00  0.00    +0.159 C 
BRANCH  36  39
ATOM     37  C   ARG A   2       6.909   2.860  23.187  0.00  0.00    +0.234 C 
ATOM     38  O   ARG A   2       7.219   3.677  22.322  0.00  0.00    -0.274 OA
ATOM     39  N   LEU A   3       7.805   2.001  23.772  0.00  0.00    -0.302 N 
ATOM     40  H   LEU A   3       7.477   1.283  24.409  0.00  0.00    +0.150 HD
BRANCH  37  41
ATOM     41  CA  ARG A   2       5.459   2.699  23.669  0.00  0.00    +0.159 C 
BRANCH  41  43
ATOM     42  C   VAL A   1       4.970   1.978  25.989  0.00  0.00    +0.231 C 
ATOM     43  N   ARG A   2       5.483   2.902  25.111  0.00  0.00    -0.303 N 
ATOM     44  H   ARG A   2       5.971   3.725  25.457  0.00  0.00    +0.149 HD
ATOM     45  O   VAL A   1       4.362   0.979  25.611  0.00  0.00    -0.274 OA
BRANCH  42  46
ATOM     46  CA  VAL A   1       5.214   2.306  27.483  0.00  0.00    +0.140 C 
BRANCH  46  47
ATOM     47  N   VAL A   1       3.991   2.940  28.018  0.00  0.00    -0.320 NA
ATOM     48  H1  VAL A   1       3.823   2.591  28.961  0.00  0.00    +0.119 HD
ATOM     49  H2  VAL A   1       4.193   3.936  28.148  0.00  0.00    +0.119 HD
ENDBRANCH  46  47
BRANCH  46  50
ATOM     50  CB  VAL A   1       5.579   1.031  28.283  0.00  0.00    +0.009 C 
ATOM     51  CG2 VAL A   1       7.072   0.976  28.634  0.00  0.00    +0.009 C 
ATOM     52  CG1 VAL A   1       4.767   0.924  29.581  0.00  0.00    +0.009 C 
ENDBRANCH  46  50
ENDBRANCH  42  46
ENDBRANCH  41  43
BRANCH  41  53
ATOM     53  CB  ARG A   2       4.538   3.721  22.986  0.00  0.00    +0.035 C 
BRANCH  53  54
ATOM     54  CG  ARG A   2       3.067   3.299  22.982  0.00  0.00    +0.039 C 
BRANCH  54  55
ATOM     55  CD  ARG A   2       2.517   3.166  21.564  0.00  0.00    +0.196 C 
BRANCH  55  56
ATOM     56  NE  ARG A   2       3.481   2.470  20.697  0.00  0.00    -0.279 N 
ATOM     57  HE  ARG A   2       4.179   1.860  21.118  0.00  0.00    +0.258 HD
ATOM     58  CZ  ARG A   2       3.520   2.573  19.361  0.00  0.00    +0.341 C 
ATOM     59  NH2 ARG A   2       4.473   1.944  18.677  0.00  0.00    -0.292 N 
ATOM     60 HH21 ARG A   2       5.265   1.500  19.163  0.00  0.00    +0.255 HD
ATOM     61 HH22 ARG A   2       4.523   1.959  17.671  0.00  0.00    +0.255 HD
ATOM     62  NH1 ARG A   2       2.626   3.301  18.685  0.00  0.00    -0.292 N 
ATOM     63 HH11 ARG A   2       1.890   3.803  19.162  0.00  0.00    +0.255 HD
ATOM     64 HH12 ARG A   2       2.667   3.382  17.678  0.00  0.00    +0.255 HD
ENDBRANCH  55  56
ENDBRANCH  54  55
ENDBRANCH  53  54
ENDBRANCH  41  53
ENDBRANCH  37  41
ENDBRANCH  36  39
BRANCH  36  65
ATOM     65  CB  LEU A   3      10.103   2.836  24.129  0.00  0.00    +0.034 C 
BRANCH  65  66
ATOM     66  CG  LEU A   3      10.432   4.158  23.406  0.00  0.00    -0.015 C 
ATOM     67  CD2 LEU A   3       9.775   5.330  24.140  0.00  0.00    +0.007 C 
ATOM     68  CD1 LEU A   3      11.939   4.400  23.301  0.00  0.00    +0.007 C 
ENDBRANCH  65  66
ENDBRANCH  36  65
ENDBRANCH  32  36
ENDBRANCH   1  33
BRANCH   1  69
ATOM     69  CB  GLN A   4       8.194  -2.297  25.282  0.00  0.00    +0.041 C 
BRANCH  69  70
ATOM     70  CG  GLN A   4       7.181  -1.302  25.840  0.00  0.00    +0.098 C 
BRANCH  70  71
ATOM     71  CD  GLN A   4       5.873  -2.017  26.104  0.00  0.00    +0.211 C 
ATOM     72  OE1 GLN A   4       5.513  -2.374  27.226  0.00  0.00    -0.276 OA
ATOM     73  NE2 GLN A   4       5.068  -2.164  25.016  0.00  0.00    -0.329 N 
ATOM     74 HE21 GLN A   4       5.366  -1.922  24.078  0.00  0.00    +0.145 HD
ATOM     75 HE22 GLN A   4       4.181  -2.640  25.109  0.00  0.00    +0.145 HD
ENDBRANCH  70  71
ENDBRANCH  69  70
ENDBRANCH   1  69
TORSDOF 28
ENDMDL
MODEL 18
REMARK VINA RESULT:      -5.3      2.207      8.145
REMARK  Name = VRLQAGNA-mmff94.pdb
REMARK  34 active torsions:
REMARK  status: ('A' for Active; 'I' for Inactive)
REMARK    1  A    between atoms: _1  and  _2
REMARK    2  A    between atoms: _2  and  _3
REMARK    3  A    between atoms: _2  and  _5
REMARK    4  A    between atoms: _5  and  _6
REMARK    5  A    between atoms: _5  and  _7
REMARK    6  A    between atoms: _17  and  _18
REMARK    7  A    between atoms: _18  and  _19
REMARK    8  A    between atoms: _18  and  _21
REMARK    9  A    between atoms: _21  and  _22
REMARK   10  A    between atoms: _22  and  _23
REMARK   11  A    between atoms: _23  and  _24
REMARK   12  A    between atoms: _41  and  _42
REMARK   13  A    between atoms: _42  and  _43
REMARK   14  A    between atoms: _42  and  _45
REMARK   15  A    between atoms: _45  and  _46
REMARK   16  A    between atoms: _46  and  _47
REMARK   17  A    between atoms: _46  and  _48
REMARK   18  A    between atoms: _60  and  _61
REMARK   19  A    between atoms: _61  and  _62
REMARK   20  A    between atoms: _61  and  _64
REMARK   21  A    between atoms: _64  and  _65
REMARK   22  A    between atoms: _65  and  _66
REMARK   23  A    between atoms: _77  and  _78
REMARK   24  A    between atoms: _78  and  _79
REMARK   25  A    between atoms: _78  and  _81
REMARK   26  A    between atoms: _87  and  _88
REMARK   27  A    between atoms: _88  and  _89
REMARK   28  A    between atoms: _94  and  _95
REMARK   29  A    between atoms: _95  and  _96
REMARK   30  A    between atoms: _95  and  _98
REMARK   31  A    between atoms: _98  and  _99
REMARK   32  A    between atoms: _108  and  _109
REMARK   33  A    between atoms: _109  and  _110
REMARK   34  A    between atoms: _109  and  _112
REMARK                            x       y       z     vdW  Elec       q    Type
REMARK                         _______ _______ _______ _____ _____    ______ ____
ROOT
ATOM      1  CA  GLN A   4       7.446  -5.232  25.112  0.00  0.00    +0.159 C 
ENDROOT
BRANCH   1   2
ATOM      2  C   GLN A   4       8.735  -4.397  24.986  0.00  0.00    +0.234 C 
ATOM      3  O   GLN A   4       9.847  -4.923  25.037  0.00  0.00    -0.274 OA
ATOM      4  N   ALA A   5       8.559  -3.044  24.855  0.00  0.00    -0.303 N 
ATOM      5  H   ALA A   5       7.635  -2.637  24.746  0.00  0.00    +0.149 HD
BRANCH   4   6
ATOM      6  CA  ALA A   5       9.685  -2.123  24.702  0.00  0.00    +0.156 C 
ATOM      7  CB  ALA A   5      10.059  -1.943  23.233  0.00  0.00    +0.038 C 
BRANCH   6   8
ATOM      8  C   ALA A   5       9.279  -0.773  25.325  0.00  0.00    +0.233 C 
ATOM      9  N   GLY A   6       9.439   0.314  24.506  0.00  0.00    -0.305 N 
ATOM     10  H   GLY A   6       9.867   0.225  23.588  0.00  0.00    +0.149 HD
ATOM     11  O   ALA A   5       8.837  -0.692  26.472  0.00  0.00    -0.274 OA
BRANCH   9  12
ATOM     12  CA  GLY A   6       9.023   1.648  24.900  0.00  0.00    +0.200 C 
BRANCH  12  13
ATOM     13  C   GLY A   6       8.638   2.445  23.653  0.00  0.00    +0.231 C 
ATOM     14  O   GLY A   6       9.235   3.466  23.315  0.00  0.00    -0.274 OA
ATOM     15  N   ASN A   7       7.568   1.942  22.958  0.00  0.00    -0.302 N 
ATOM     16  H   ASN A   7       7.058   1.132  23.303  0.00  0.00    +0.150 HD
BRANCH  15  17
ATOM     17  CA  ASN A   7       7.096   2.523  21.701  0.00  0.00    +0.168 C 
BRANCH  17  18
ATOM     18  C   ASN A   7       5.939   3.474  22.055  0.00  0.00    +0.234 C 
ATOM     19  N   ALA A   8       4.683   2.990  21.787  0.00  0.00    -0.305 N 
ATOM     20  H   ALA A   8       4.548   2.052  21.417  0.00  0.00    +0.149 HD
ATOM     21  O   ASN A   7       6.132   4.574  22.574  0.00  0.00    -0.274 OA
BRANCH  19  22
ATOM     22  CA  ALA A   8       3.470   3.711  22.156  0.00  0.00    +0.133 C 
ATOM     23  CB  ALA A   8       2.286   3.325  21.284  0.00  0.00    +0.035 C 
BRANCH  22  24
ATOM     24  C   ALA A   8       3.162   3.381  23.609  0.00  0.00    +0.245 C 
ATOM     25  O   ALA A   8       2.253   2.623  23.949  0.00  0.00    -0.299 OA
ENDBRANCH  22  24
ENDBRANCH  19  22
ENDBRANCH  17  18
BRANCH  17  26
ATOM     26  CB  ASN A   7       6.586   1.465  20.724  0.00  0.00    +0.127 C 
BRANCH  26  27
ATOM     27  CG  ASN A   7       7.681   0.594  20.163  0.00  0.00    +0.213 C 
ATOM     28  OD1 ASN A   7       8.591   0.146  20.851  0.00  0.00    -0.276 OA
ATOM     29  ND2 ASN A   7       7.595   0.298  18.836  0.00  0.00    -0.329 N 
ATOM     30 HD21 ASN A   7       8.394  -0.199  18.460  0.00  0.00    +0.145 HD
ATOM     31 HD22 ASN A   7       7.129   0.918  18.189  0.00  0.00    +0.145 HD
ENDBRANCH  26  27
ENDBRANCH  17  26
ENDBRANCH  15  17
ENDBRANCH  12  13
ENDBRANCH   9  12
ENDBRANCH   6   8
ENDBRANCH   4   6
ENDBRANCH   1   2
BRANCH   1  33
ATOM     32  C   LEU A   3       6.467  -5.278  27.401  0.00  0.00    +0.234 C 
ATOM     33  N   GLN A   4       6.684  -4.636  26.208  0.00  0.00    -0.302 N 
ATOM     34  H   GLN A   4       6.274  -3.720  26.026  0.00  0.00    +0.150 HD
ATOM     35  O   LEU A   3       6.892  -6.414  27.627  0.00  0.00    -0.274 OA
BRANCH  32  36
ATOM     36  CA  LEU A   3       5.624  -4.484  28.422  0.00  0.00    +0.159 C 
BRANCH  36  39
ATOM     37  C   ARG A   2       4.082  -2.562  28.082  0.00  0.00    +0.234 C 
ATOM     38  O   ARG A   2       4.301  -2.079  29.191  0.00  0.00    -0.274 OA
ATOM     39  N   LEU A   3       4.629  -3.745  27.651  0.00  0.00    -0.302 N 
ATOM     40  H   LEU A   3       4.491  -4.047  26.692  0.00  0.00    +0.150 HD
BRANCH  37  41
ATOM     41  CA  ARG A   2       3.194  -1.853  27.048  0.00  0.00    +0.159 C 
BRANCH  41  43
ATOM     42  C   VAL A   1       5.184  -0.682  26.147  0.00  0.00    +0.231 C 
ATOM     43  N   ARG A   2       3.909  -0.645  26.656  0.00  0.00    -0.303 N 
ATOM     44  H   ARG A   2       3.396   0.233  26.699  0.00  0.00    +0.149 HD
ATOM     45  O   VAL A   1       5.841  -1.720  26.093  0.00  0.00    -0.274 OA
BRANCH  42  46
ATOM     46  CA  VAL A   1       5.721   0.687  25.659  0.00  0.00    +0.140 C 
BRANCH  46  47
ATOM     47  N   VAL A   1       5.057   1.008  24.378  0.00  0.00    -0.320 NA
ATOM     48  H1  VAL A   1       4.441   1.809  24.517  0.00  0.00    +0.119 HD
ATOM     49  H2  VAL A   1       5.778   1.350  23.735  0.00  0.00    +0.119 HD
ENDBRANCH  46  47
BRANCH  46  50
ATOM     50  CB  VAL A   1       5.472   1.795  26.713  0.00  0.00    +0.009 C 
ATOM     51  CG2 VAL A   1       6.324   1.596  27.973  0.00  0.00    +0.009 C 
ATOM     52  CG1 VAL A   1       5.755   3.191  26.144  0.00  0.00    +0.009 C 
ENDBRANCH  46  50
ENDBRANCH  42  46
ENDBRANCH  41  43
BRANCH  41  53
ATOM     53  CB  ARG A   2       2.939  -2.758  25.833  0.00  0.00    +0.035 C 
BRANCH  53  54
ATOM     54  CG  ARG A   2       1.605  -3.506  25.908  0.00  0.00    +0.039 C 
BRANCH  54  55
ATOM     55  CD  ARG A   2       1.663  -4.845  25.176  0.00  0.00    +0.196 C 
BRANCH  55  56
ATOM     56  NE  ARG A   2       2.664  -5.731  25.793  0.00  0.00    -0.279 N 
ATOM     57  HE  ARG A   2       2.878  -5.626  26.782  0.00  0.00    +0.258 HD
ATOM     58  CZ  ARG A   2       3.335  -6.692  25.144  0.00  0.00    +0.341 C 
ATOM     59  NH2 ARG A   2       4.263  -7.399  25.786  0.00  0.00    -0.292 N 
ATOM     60 HH21 ARG A   2       4.576  -7.124  26.727  0.00  0.00    +0.255 HD
ATOM     61 HH22 ARG A   2       4.767  -8.157  25.355  0.00  0.00    +0.255 HD
ATOM     62  NH1 ARG A   2       3.106  -6.964  23.855  0.00  0.00    -0.292 N 
ATOM     63 HH11 ARG A   2       2.417  -6.449  23.325  0.00  0.00    +0.255 HD
ATOM     64 HH12 ARG A   2       3.622  -7.685  23.370  0.00  0.00    +0.255 HD
ENDBRANCH  55  56
ENDBRANCH  54  55
ENDBRANCH  53  54
ENDBRANCH  41  53
ENDBRANCH  37  41
ENDBRANCH  36  39
BRANCH  36  65
ATOM     65  CB  LEU A   3       4.954  -5.420  29.438  0.00  0.00    +0.034 C 
BRANCH  65  66
ATOM     66  CG  LEU A   3       3.448  -5.651  29.194  0.00  0.00    -0.015 C 
ATOM     67  CD2 LEU A   3       3.153  -7.153  29.147  0.00  0.00    +0.007 C 
ATOM     68  CD1 LEU A   3       2.580  -4.994  30.269  0.00  0.00    +0.007 C 
ENDBRANCH  65  66
ENDBRANCH  36  65
ENDBRANCH  32  36
ENDBRANCH   1  33
BRANCH   1  69
ATOM     69  CB  GLN A   4       6.634  -5.195  23.811  0.00  0.00    +0.041 C 
BRANCH  69  70
ATOM     70  CG  GLN A   4       5.515  -4.158  23.835  0.00  0.00    +0.098 C 
BRANCH  70  71
ATOM     71  CD  GLN A   4       5.656  -3.244  22.636  0.00  0.00    +0.211 C 
ATOM     72  OE1 GLN A   4       5.508  -3.625  21.475  0.00  0.00    -0.276 OA
ATOM     73  NE2 GLN A   4       5.875  -1.934  22.934  0.00  0.00    -0.329 N 
ATOM     74 HE21 GLN A   4       6.050  -1.609  23.879  0.00  0.00    +0.145 HD
ATOM     75 HE22 GLN A   4       5.991  -1.262  22.188  0.00  0.00    +0.145 HD
ENDBRANCH  70  71
ENDBRANCH  69  70
ENDBRANCH   1  69
TORSDOF 28
ENDMDL
MODEL 19
REMARK VINA RESULT:      -5.3      2.267      4.348
REMARK  Name = VRLQAGNA-mmff94.pdb
REMARK  34 active torsions:
REMARK  status: ('A' for Active; 'I' for Inactive)
REMARK    1  A    between atoms: _1  and  _2
REMARK    2  A    between atoms: _2  and  _3
REMARK    3  A    between atoms: _2  and  _5
REMARK    4  A    between atoms: _5  and  _6
REMARK    5  A    between atoms: _5  and  _7
REMARK    6  A    between atoms: _17  and  _18
REMARK    7  A    between atoms: _18  and  _19
REMARK    8  A    between atoms: _18  and  _21
REMARK    9  A    between atoms: _21  and  _22
REMARK   10  A    between atoms: _22  and  _23
REMARK   11  A    between atoms: _23  and  _24
REMARK   12  A    between atoms: _41  and  _42
REMARK   13  A    between atoms: _42  and  _43
REMARK   14  A    between atoms: _42  and  _45
REMARK   15  A    between atoms: _45  and  _46
REMARK   16  A    between atoms: _46  and  _47
REMARK   17  A    between atoms: _46  and  _48
REMARK   18  A    between atoms: _60  and  _61
REMARK   19  A    between atoms: _61  and  _62
REMARK   20  A    between atoms: _61  and  _64
REMARK   21  A    between atoms: _64  and  _65
REMARK   22  A    between atoms: _65  and  _66
REMARK   23  A    between atoms: _77  and  _78
REMARK   24  A    between atoms: _78  and  _79
REMARK   25  A    between atoms: _78  and  _81
REMARK   26  A    between atoms: _87  and  _88
REMARK   27  A    between atoms: _88  and  _89
REMARK   28  A    between atoms: _94  and  _95
REMARK   29  A    between atoms: _95  and  _96
REMARK   30  A    between atoms: _95  and  _98
REMARK   31  A    between atoms: _98  and  _99
REMARK   32  A    between atoms: _108  and  _109
REMARK   33  A    between atoms: _109  and  _110
REMARK   34  A    between atoms: _109  and  _112
REMARK                            x       y       z     vdW  Elec       q    Type
REMARK                         _______ _______ _______ _____ _____    ______ ____
ROOT
ATOM      1  CA  GLN A   4       8.576   0.098  21.412  0.00  0.00    +0.159 C 
ENDROOT
BRANCH   1   2
ATOM      2  C   GLN A   4       7.318  -0.792  21.422  0.00  0.00    +0.234 C 
ATOM      3  O   GLN A   4       6.548  -0.824  20.463  0.00  0.00    -0.274 OA
ATOM      4  N   ALA A   5       7.100  -1.502  22.575  0.00  0.00    -0.303 N 
ATOM      5  H   ALA A   5       7.781  -1.515  23.327  0.00  0.00    +0.149 HD
BRANCH   4   6
ATOM      6  CA  ALA A   5       5.961  -2.408  22.727  0.00  0.00    +0.156 C 
ATOM      7  CB  ALA A   5       6.299  -3.811  22.233  0.00  0.00    +0.038 C 
BRANCH   6   8
ATOM      8  C   ALA A   5       5.580  -2.439  24.220  0.00  0.00    +0.233 C 
ATOM      9  N   GLY A   6       6.595  -2.122  25.085  0.00  0.00    -0.305 N 
ATOM     10  H   GLY A   6       7.540  -1.957  24.750  0.00  0.00    +0.149 HD
ATOM     11  O   ALA A   5       4.440  -2.721  24.595  0.00  0.00    -0.274 OA
BRANCH   9  12
ATOM     12  CA  GLY A   6       6.386  -2.015  26.517  0.00  0.00    +0.200 C 
BRANCH  12  13
ATOM     13  C   GLY A   6       6.254  -3.417  27.113  0.00  0.00    +0.231 C 
ATOM     14  O   GLY A   6       7.230  -4.132  27.336  0.00  0.00    -0.274 OA
ATOM     15  N   ASN A   7       4.965  -3.816  27.359  0.00  0.00    -0.302 N 
ATOM     16  H   ASN A   7       4.179  -3.224  27.101  0.00  0.00    +0.150 HD
BRANCH  15  17
ATOM     17  CA  ASN A   7       4.638  -5.094  27.993  0.00  0.00    +0.168 C 
BRANCH  17  18
ATOM     18  C   ASN A   7       3.423  -5.667  27.243  0.00  0.00    +0.234 C 
ATOM     19  N   ALA A   8       3.385  -5.394  25.898  0.00  0.00    -0.305 N 
ATOM     20  H   ALA A   8       4.136  -4.881  25.444  0.00  0.00    +0.149 HD
ATOM     21  O   ASN A   7       2.568  -6.351  27.807  0.00  0.00    -0.274 OA
BRANCH  19  22
ATOM     22  CA  ALA A   8       2.365  -5.947  25.015  0.00  0.00    +0.133 C 
ATOM     23  CB  ALA A   8       1.720  -4.880  24.145  0.00  0.00    +0.035 C 
BRANCH  22  24
ATOM     24  C   ALA A   8       3.037  -6.988  24.130  0.00  0.00    +0.245 C 
ATOM     25  O   ALA A   8       3.802  -7.848  24.565  0.00  0.00    -0.299 OA
ENDBRANCH  22  24
ENDBRANCH  19  22
ENDBRANCH  17  18
BRANCH  17  26
ATOM     26  CB  ASN A   7       4.280  -4.939  29.470  0.00  0.00    +0.127 C 
BRANCH  26  27
ATOM     27  CG  ASN A   7       3.461  -3.706  29.759  0.00  0.00    +0.213 C 
ATOM     28  OD1 ASN A   7       3.940  -2.577  29.767  0.00  0.00    -0.276 OA
ATOM     29  ND2 ASN A   7       2.133  -3.905  29.986  0.00  0.00    -0.329 N 
ATOM     30 HD21 ASN A   7       1.625  -3.080  30.281  0.00  0.00    +0.145 HD
ATOM     31 HD22 ASN A   7       1.789  -4.779  30.359  0.00  0.00    +0.145 HD
ENDBRANCH  26  27
ENDBRANCH  17  26
ENDBRANCH  15  17
ENDBRANCH  12  13
ENDBRANCH   9  12
ENDBRANCH   6   8
ENDBRANCH   4   6
ENDBRANCH   1   2
BRANCH   1  33
ATOM     32  C   LEU A   3       7.440   2.241  21.981  0.00  0.00    +0.234 C 
ATOM     33  N   GLN A   4       8.289   1.214  22.313  0.00  0.00    -0.302 N 
ATOM     34  H   GLN A   4       8.793   1.219  23.198  0.00  0.00    +0.150 HD
ATOM     35  O   LEU A   3       6.866   2.298  20.891  0.00  0.00    -0.274 OA
BRANCH  32  36
ATOM     36  CA  LEU A   3       7.285   3.330  23.065  0.00  0.00    +0.159 C 
BRANCH  36  39
ATOM     37  C   ARG A   2       5.363   2.129  24.089  0.00  0.00    +0.234 C 
ATOM     38  O   ARG A   2       5.959   1.056  24.158  0.00  0.00    -0.274 OA
ATOM     39  N   LEU A   3       5.903   3.259  23.527  0.00  0.00    -0.302 N 
ATOM     40  H   LEU A   3       5.404   4.141  23.584  0.00  0.00    +0.150 HD
BRANCH  37  41
ATOM     41  CA  ARG A   2       3.954   2.315  24.673  0.00  0.00    +0.159 C 
BRANCH  41  43
ATOM     42  C   VAL A   1       3.991   1.349  26.955  0.00  0.00    +0.231 C 
ATOM     43  N   ARG A   2       4.121   2.429  26.116  0.00  0.00    -0.303 N 
ATOM     44  H   ARG A   2       4.420   3.331  26.479  0.00  0.00    +0.149 HD
ATOM     45  O   VAL A   1       3.619   0.247  26.556  0.00  0.00    -0.274 OA
BRANCH  42  46
ATOM     46  CA  VAL A   1       4.343   1.639  28.435  0.00  0.00    +0.140 C 
BRANCH  46  47
ATOM     47  N   VAL A   1       4.303   0.359  29.174  0.00  0.00    -0.320 NA
ATOM     48  H1  VAL A   1       3.928   0.528  30.107  0.00  0.00    +0.119 HD
ATOM     49  H2  VAL A   1       3.603  -0.236  28.722  0.00  0.00    +0.119 HD
ENDBRANCH  46  47
BRANCH  46  50
ATOM     50  CB  VAL A   1       5.732   2.314  28.559  0.00  0.00    +0.009 C 
ATOM     51  CG2 VAL A   1       6.007   2.815  29.983  0.00  0.00    +0.009 C 
ATOM     52  CG1 VAL A   1       6.863   1.361  28.148  0.00  0.00    +0.009 C 
ENDBRANCH  46  50
ENDBRANCH  42  46
ENDBRANCH  41  43
BRANCH  41  53
ATOM     53  CB  ARG A   2       3.285   3.571  24.097  0.00  0.00    +0.035 C 
BRANCH  53  54
ATOM     54  CG  ARG A   2       2.339   3.271  22.931  0.00  0.00    +0.039 C 
BRANCH  54  55
ATOM     55  CD  ARG A   2       2.909   3.754  21.599  0.00  0.00    +0.196 C 
BRANCH  55  56
ATOM     56  NE  ARG A   2       3.699   2.692  20.956  0.00  0.00    -0.279 N 
ATOM     57  HE  ARG A   2       4.342   2.140  21.520  0.00  0.00    +0.258 HD
ATOM     58  CZ  ARG A   2       3.642   2.379  19.654  0.00  0.00    +0.341 C 
ATOM     59  NH2 ARG A   2       4.445   1.437  19.165  0.00  0.00    -0.292 N 
ATOM     60 HH21 ARG A   2       5.208   1.048  19.735  0.00  0.00    +0.255 HD
ATOM     61 HH22 ARG A   2       4.413   1.139  18.203  0.00  0.00    +0.255 HD
ATOM     62  NH1 ARG A   2       2.799   2.994  18.819  0.00  0.00    -0.292 N 
ATOM     63 HH11 ARG A   2       2.176   3.721  19.143  0.00  0.00    +0.255 HD
ATOM     64 HH12 ARG A   2       2.767   2.760  17.837  0.00  0.00    +0.255 HD
ENDBRANCH  55  56
ENDBRANCH  54  55
ENDBRANCH  53  54
ENDBRANCH  41  53
ENDBRANCH  37  41
ENDBRANCH  36  39
BRANCH  36  65
ATOM     65  CB  LEU A   3       8.268   3.105  24.223  0.00  0.00    +0.034 C 
BRANCH  65  66
ATOM     66  CG  LEU A   3       9.416   4.134  24.292  0.00  0.00    -0.015 C 
ATOM     67  CD2 LEU A   3      10.638   3.601  23.540  0.00  0.00    +0.007 C 
ATOM     68  CD1 LEU A   3       9.011   5.491  23.712  0.00  0.00    +0.007 C 
ENDBRANCH  65  66
ENDBRANCH  36  65
ENDBRANCH  32  36
ENDBRANCH   1  33
BRANCH   1  69
ATOM     69  CB  GLN A   4       9.807  -0.679  21.895  0.00  0.00    +0.041 C 
BRANCH  69  70
ATOM     70  CG  GLN A   4      10.481  -0.037  23.103  0.00  0.00    +0.098 C 
BRANCH  70  71
ATOM     71  CD  GLN A   4       9.941  -0.667  24.369  0.00  0.00    +0.211 C 
ATOM     72  OE1 GLN A   4       9.535  -1.829  24.426  0.00  0.00    -0.276 OA
ATOM     73  NE2 GLN A   4      10.014   0.118  25.479  0.00  0.00    -0.329 N 
ATOM     74 HE21 GLN A   4      10.297   1.091  25.444  0.00  0.00    +0.145 HD
ATOM     75 HE22 GLN A   4       9.663  -0.228  26.362  0.00  0.00    +0.145 HD
ENDBRANCH  70  71
ENDBRANCH  69  70
ENDBRANCH   1  69
TORSDOF 28
ENDMDL
MODEL 20
REMARK VINA RESULT:      -5.3      2.212      8.770
REMARK  Name = VRLQAGNA-mmff94.pdb
REMARK  34 active torsions:
REMARK  status: ('A' for Active; 'I' for Inactive)
REMARK    1  A    between atoms: _1  and  _2
REMARK    2  A    between atoms: _2  and  _3
REMARK    3  A    between atoms: _2  and  _5
REMARK    4  A    between atoms: _5  and  _6
REMARK    5  A    between atoms: _5  and  _7
REMARK    6  A    between atoms: _17  and  _18
REMARK    7  A    between atoms: _18  and  _19
REMARK    8  A    between atoms: _18  and  _21
REMARK    9  A    between atoms: _21  and  _22
REMARK   10  A    between atoms: _22  and  _23
REMARK   11  A    between atoms: _23  and  _24
REMARK   12  A    between atoms: _41  and  _42
REMARK   13  A    between atoms: _42  and  _43
REMARK   14  A    between atoms: _42  and  _45
REMARK   15  A    between atoms: _45  and  _46
REMARK   16  A    between atoms: _46  and  _47
REMARK   17  A    between atoms: _46  and  _48
REMARK   18  A    between atoms: _60  and  _61
REMARK   19  A    between atoms: _61  and  _62
REMARK   20  A    between atoms: _61  and  _64
REMARK   21  A    between atoms: _64  and  _65
REMARK   22  A    between atoms: _65  and  _66
REMARK   23  A    between atoms: _77  and  _78
REMARK   24  A    between atoms: _78  and  _79
REMARK   25  A    between atoms: _78  and  _81
REMARK   26  A    between atoms: _87  and  _88
REMARK   27  A    between atoms: _88  and  _89
REMARK   28  A    between atoms: _94  and  _95
REMARK   29  A    between atoms: _95  and  _96
REMARK   30  A    between atoms: _95  and  _98
REMARK   31  A    between atoms: _98  and  _99
REMARK   32  A    between atoms: _108  and  _109
REMARK   33  A    between atoms: _109  and  _110
REMARK   34  A    between atoms: _109  and  _112
REMARK                            x       y       z     vdW  Elec       q    Type
REMARK                         _______ _______ _______ _____ _____    ______ ____
ROOT
ATOM      1  CA  GLN A   4       4.335   1.816  26.610  0.00  0.00    +0.159 C 
ENDROOT
BRANCH   1   2
ATOM      2  C   GLN A   4       4.819   1.929  25.152  0.00  0.00    +0.234 C 
ATOM      3  O   GLN A   4       5.432   1.011  24.608  0.00  0.00    -0.274 OA
ATOM      4  N   ALA A   5       4.558   3.121  24.528  0.00  0.00    -0.303 N 
ATOM      5  H   ALA A   5       3.991   3.839  24.969  0.00  0.00    +0.149 HD
BRANCH   4   6
ATOM      6  CA  ALA A   5       4.935   3.371  23.136  0.00  0.00    +0.156 C 
ATOM      7  CB  ALA A   5       3.833   4.115  22.388  0.00  0.00    +0.038 C 
BRANCH   6   8
ATOM      8  C   ALA A   5       6.237   4.196  23.141  0.00  0.00    +0.233 C 
ATOM      9  N   GLY A   6       7.354   3.515  23.546  0.00  0.00    -0.305 N 
ATOM     10  H   GLY A   6       7.294   2.559  23.887  0.00  0.00    +0.149 HD
ATOM     11  O   ALA A   5       6.258   5.379  22.795  0.00  0.00    -0.274 OA
BRANCH   9  12
ATOM     12  CA  GLY A   6       8.676   4.113  23.524  0.00  0.00    +0.200 C 
BRANCH  12  13
ATOM     13  C   GLY A   6       9.700   3.057  23.107  0.00  0.00    +0.231 C 
ATOM     14  O   GLY A   6      10.913   3.245  23.197  0.00  0.00    -0.274 OA
ATOM     15  N   ASN A   7       9.160   1.899  22.608  0.00  0.00    -0.302 N 
ATOM     16  H   ASN A   7       8.154   1.804  22.488  0.00  0.00    +0.150 HD
BRANCH  15  17
ATOM     17  CA  ASN A   7       9.974   0.746  22.223  0.00  0.00    +0.168 C 
BRANCH  17  18
ATOM     18  C   ASN A   7       9.097  -0.139  21.319  0.00  0.00    +0.234 C 
ATOM     19  N   ALA A   8       8.235   0.542  20.495  0.00  0.00    -0.305 N 
ATOM     20  H   ALA A   8       8.222   1.559  20.472  0.00  0.00    +0.149 HD
ATOM     21  O   ASN A   7       9.191  -1.366  21.315  0.00  0.00    -0.274 OA
BRANCH  19  22
ATOM     22  CA  ALA A   8       7.409  -0.130  19.499  0.00  0.00    +0.133 C 
ATOM     23  CB  ALA A   8       6.285  -0.933  20.135  0.00  0.00    +0.035 C 
BRANCH  22  24
ATOM     24  C   ALA A   8       6.820   0.940  18.590  0.00  0.00    +0.245 C 
ATOM     25  O   ALA A   8       6.411   0.706  17.453  0.00  0.00    -0.299 OA
ENDBRANCH  22  24
ENDBRANCH  19  22
ENDBRANCH  17  18
BRANCH  17  26
ATOM     26  CB  ASN A   7      10.430  -0.075  23.427  0.00  0.00    +0.127 C 
BRANCH  26  27
ATOM     27  CG  ASN A   7       9.441  -0.067  24.565  0.00  0.00    +0.213 C 
ATOM     28  OD1 ASN A   7       8.281  -0.446  24.439  0.00  0.00    -0.276 OA
ATOM     29  ND2 ASN A   7       9.911   0.360  25.770  0.00  0.00    -0.329 N 
ATOM     30 HD21 ASN A   7       9.205   0.456  26.490  0.00  0.00    +0.145 HD
ATOM     31 HD22 ASN A   7      10.682   1.010  25.831  0.00  0.00    +0.145 HD
ENDBRANCH  26  27
ENDBRANCH  17  26
ENDBRANCH  15  17
ENDBRANCH  12  13
ENDBRANCH   9  12
ENDBRANCH   6   8
ENDBRANCH   4   6
ENDBRANCH   1   2
BRANCH   1  33
ATOM     32  C   LEU A   3       3.095  -0.303  27.036  0.00  0.00    +0.234 C 
ATOM     33  N   GLN A   4       4.276   0.385  26.907  0.00  0.00    -0.302 N 
ATOM     34  H   GLN A   4       5.170  -0.080  27.062  0.00  0.00    +0.150 HD
ATOM     35  O   LEU A   3       1.996   0.245  26.921  0.00  0.00    -0.274 OA
BRANCH  32  36
ATOM     36  CA  LEU A   3       3.251  -1.803  27.367  0.00  0.00    +0.159 C 
BRANCH  36  39
ATOM     37  C   ARG A   2       3.299  -3.717  25.780  0.00  0.00    +0.234 C 
ATOM     38  O   ARG A   2       2.624  -4.446  26.504  0.00  0.00    -0.274 OA
ATOM     39  N   LEU A   3       3.696  -2.453  26.138  0.00  0.00    -0.302 N 
ATOM     40  H   LEU A   3       4.169  -1.860  25.464  0.00  0.00    +0.150 HD
BRANCH  37  41
ATOM     41  CA  ARG A   2       3.731  -4.148  24.370  0.00  0.00    +0.159 C 
BRANCH  41  43
ATOM     42  C   VAL A   1       6.143  -3.788  23.932  0.00  0.00    +0.231 C 
ATOM     43  N   ARG A   2       5.130  -4.540  24.474  0.00  0.00    -0.303 N 
ATOM     44  H   ARG A   2       5.342  -5.361  25.037  0.00  0.00    +0.149 HD
ATOM     45  O   VAL A   1       5.927  -2.799  23.235  0.00  0.00    -0.274 OA
BRANCH  42  46
ATOM     46  CA  VAL A   1       7.569  -4.293  24.266  0.00  0.00    +0.140 C 
BRANCH  46  47
ATOM     47  N   VAL A   1       8.539  -3.367  23.646  0.00  0.00    -0.320 NA
ATOM     48  H1  VAL A   1       9.354  -3.899  23.339  0.00  0.00    +0.119 HD
ATOM     49  H2  VAL A   1       8.121  -3.019  22.778  0.00  0.00    +0.119 HD
ENDBRANCH  46  47
BRANCH  46  50
ATOM     50  CB  VAL A   1       7.785  -4.386  25.798  0.00  0.00    +0.009 C 
ATOM     51  CG2 VAL A   1       9.233  -4.747  26.156  0.00  0.00    +0.009 C 
ATOM     52  CG1 VAL A   1       7.418  -3.074  26.503  0.00  0.00    +0.009 C 
ENDBRANCH  46  50
ENDBRANCH  42  46
ENDBRANCH  41  43
BRANCH  41  53
ATOM     53  CB  ARG A   2       2.869  -5.315  23.866  0.00  0.00    +0.035 C 
BRANCH  53  54
ATOM     54  CG  ARG A   2       3.589  -6.665  23.922  0.00  0.00    +0.039 C 
BRANCH  54  55
ATOM     55  CD  ARG A   2       3.255  -7.434  25.199  0.00  0.00    +0.196 C 
BRANCH  55  56
ATOM     56  NE  ARG A   2       4.380  -7.382  26.146  0.00  0.00    -0.279 N 
ATOM     57  HE  ARG A   2       5.333  -7.428  25.790  0.00  0.00    +0.258 HD
ATOM     58  CZ  ARG A   2       4.255  -7.275  27.476  0.00  0.00    +0.341 C 
ATOM     59  NH2 ARG A   2       5.340  -7.295  28.246  0.00  0.00    -0.292 N 
ATOM     60 HH21 ARG A   2       6.260  -7.537  27.853  0.00  0.00    +0.255 HD
ATOM     61 HH22 ARG A   2       5.301  -7.180  29.246  0.00  0.00    +0.255 HD
ATOM     62  NH1 ARG A   2       3.059  -7.154  28.062  0.00  0.00    -0.292 N 
ATOM     63 HH11 ARG A   2       2.207  -7.141  27.519  0.00  0.00    +0.255 HD
ATOM     64 HH12 ARG A   2       2.971  -7.082  29.066  0.00  0.00    +0.255 HD
ENDBRANCH  55  56
ENDBRANCH  54  55
ENDBRANCH  53  54
ENDBRANCH  41  53
ENDBRANCH  37  41
ENDBRANCH  36  39
BRANCH  36  65
ATOM     65  CB  LEU A   3       4.258  -2.020  28.505  0.00  0.00    +0.034 C 
BRANCH  65  66
ATOM     66  CG  LEU A   3       3.685  -2.764  29.729  0.00  0.00    -0.015 C 
ATOM     67  CD2 LEU A   3       2.156  -2.791  29.653  0.00  0.00    +0.007 C 
ATOM     68  CD1 LEU A   3       4.216  -4.195  29.835  0.00  0.00    +0.007 C 
ENDBRANCH  65  66
ENDBRANCH  36  65
ENDBRANCH  32  36
ENDBRANCH   1  33
BRANCH   1  69
ATOM     69  CB  GLN A   4       5.300   2.524  27.570  0.00  0.00    +0.041 C 
BRANCH  69  70
ATOM     70  CG  GLN A   4       5.681   1.667  28.773  0.00  0.00    +0.098 C 
BRANCH  70  71
ATOM     71  CD  GLN A   4       7.066   1.095  28.558  0.00  0.00    +0.211 C 
ATOM     72  OE1 GLN A   4       7.401   0.502  27.532  0.00  0.00    -0.276 OA
ATOM     73  NE2 GLN A   4       7.957   1.357  29.553  0.00  0.00    -0.329 N 
ATOM     74 HE21 GLN A   4       7.690   1.798  30.426  0.00  0.00    +0.145 HD
ATOM     75 HE22 GLN A   4       8.901   1.000  29.488  0.00  0.00    +0.145 HD
ENDBRANCH  70  71
ENDBRANCH  69  70
ENDBRANCH   1  69
TORSDOF 28
ENDMDL
