REMARK  Name = VRLQAGNA-mmff94.pdb
REMARK  34 active torsions:
REMARK  status: ('A' for Active; 'I' for Inactive)
REMARK    1  A    between atoms: _1  and  _2
REMARK    2  A    between atoms: _2  and  _3
REMARK    3  A    between atoms: _2  and  _5
REMARK    4  A    between atoms: _5  and  _6
REMARK    5  A    between atoms: _5  and  _7
REMARK    6  A    between atoms: _17  and  _18
REMARK    7  A    between atoms: _18  and  _19
REMARK    8  A    between atoms: _18  and  _21
REMARK    9  A    between atoms: _21  and  _22
REMARK   10  A    between atoms: _22  and  _23
REMARK   11  A    between atoms: _23  and  _24
REMARK   12  A    between atoms: _41  and  _42
REMARK   13  A    between atoms: _42  and  _43
REMARK   14  A    between atoms: _42  and  _45
REMARK   15  A    between atoms: _45  and  _46
REMARK   16  A    between atoms: _46  and  _47
REMARK   17  A    between atoms: _46  and  _48
REMARK   18  A    between atoms: _60  and  _61
REMARK   19  A    between atoms: _61  and  _62
REMARK   20  A    between atoms: _61  and  _64
REMARK   21  A    between atoms: _64  and  _65
REMARK   22  A    between atoms: _65  and  _66
REMARK   23  A    between atoms: _77  and  _78
REMARK   24  A    between atoms: _78  and  _79
REMARK   25  A    between atoms: _78  and  _81
REMARK   26  A    between atoms: _87  and  _88
REMARK   27  A    between atoms: _88  and  _89
REMARK   28  A    between atoms: _94  and  _95
REMARK   29  A    between atoms: _95  and  _96
REMARK   30  A    between atoms: _95  and  _98
REMARK   31  A    between atoms: _98  and  _99
REMARK   32  A    between atoms: _108  and  _109
REMARK   33  A    between atoms: _109  and  _110
REMARK   34  A    between atoms: _109  and  _112
REMARK                            x       y       z     vdW  Elec       q    Type
REMARK                         _______ _______ _______ _____ _____    ______ ____
ROOT
ATOM      1  CA  GLN A   4       9.798   4.345  -1.285  0.00  0.00    +0.159 C 
ENDROOT
BRANCH   1   2
ATOM      2  C   GLN A   4      10.249   5.818  -1.296  0.00  0.00    +0.234 C 
ATOM      3  O   GLN A   4       9.471   6.724  -1.594  0.00  0.00    -0.274 OA
ATOM      4  N   ALA A   5      11.568   6.040  -0.995  0.00  0.00    -0.303 N 
ATOM      5  H   ALA A   5      12.176   5.288  -0.685  0.00  0.00    +0.149 HD
BRANCH   4   6
ATOM      6  CA  ALA A   5      12.139   7.386  -0.942  0.00  0.00    +0.156 C 
ATOM      7  CB  ALA A   5      11.718   8.118   0.329  0.00  0.00    +0.038 C 
BRANCH   6   8
ATOM      8  C   ALA A   5      13.673   7.251  -1.004  0.00  0.00    +0.233 C 
ATOM      9  N   GLY A   6      14.354   8.433  -1.132  0.00  0.00    -0.305 N 
ATOM     10  H   GLY A   6      13.862   9.315  -1.252  0.00  0.00    +0.149 HD
ATOM     11  O   ALA A   5      14.233   6.156  -0.934  0.00  0.00    -0.274 OA
BRANCH   9  12
ATOM     12  CA  GLY A   6      15.804   8.497  -1.115  0.00  0.00    +0.200 C 
BRANCH  12  13
ATOM     13  C   GLY A   6      16.246   9.953  -1.262  0.00  0.00    +0.231 C 
ATOM     14  O   GLY A   6      15.528  10.810  -1.776  0.00  0.00    -0.274 OA
ATOM     15  N   ASN A   7      17.508  10.220  -0.795  0.00  0.00    -0.302 N 
ATOM     16  H   ASN A   7      18.098   9.473  -0.436  0.00  0.00    +0.150 HD
BRANCH  15  17
ATOM     17  CA  ASN A   7      18.080  11.566  -0.783  0.00  0.00    +0.168 C 
BRANCH  17  18
ATOM     18  C   ASN A   7      19.607  11.404  -0.890  0.00  0.00    +0.234 C 
ATOM     19  N   ALA A   8      20.296  12.553  -1.191  0.00  0.00    -0.305 N 
ATOM     20  H   ALA A   8      19.815  13.443  -1.293  0.00  0.00    +0.149 HD
ATOM     21  O   ASN A   7      20.167  10.327  -0.685  0.00  0.00    -0.274 OA
BRANCH  19  22
ATOM     22  CA  ALA A   8      21.753  12.606  -1.226  0.00  0.00    +0.133 C 
ATOM     23  CB  ALA A   8      22.316  12.028  -2.515  0.00  0.00    +0.035 C 
BRANCH  22  24
ATOM     24  C   ALA A   8      22.164  14.066  -1.100  0.00  0.00    +0.245 C 
ATOM     25  O   ALA A   8      21.354  14.993  -1.068  0.00  0.00    -0.299 OA
ENDBRANCH  22  24
ENDBRANCH  19  22
ENDBRANCH  17  18
BRANCH  17  26
ATOM     26  CB  ASN A   7      17.752  12.329   0.499  0.00  0.00    +0.127 C 
BRANCH  26  27
ATOM     27  CG  ASN A   7      16.276  12.573   0.687  0.00  0.00    +0.213 C 
ATOM     28  OD1 ASN A   7      15.610  11.992   1.537  0.00  0.00    -0.276 OA
ATOM     29  ND2 ASN A   7      15.711  13.508  -0.127  0.00  0.00    -0.329 N 
ATOM     30 HD21 ASN A   7      14.703  13.579  -0.055  0.00  0.00    +0.145 HD
ATOM     31 HD22 ASN A   7      16.094  13.709  -1.040  0.00  0.00    +0.145 HD
ENDBRANCH  26  27
ENDBRANCH  17  26
ENDBRANCH  15  17
ENDBRANCH  12  13
ENDBRANCH   9  12
ENDBRANCH   6   8
ENDBRANCH   4   6
ENDBRANCH   1   2
BRANCH   1  33
ATOM     32  C   LEU A   3       7.618   3.250  -0.783  0.00  0.00    +0.234 C 
ATOM     33  N   GLN A   4       8.347   4.368  -1.103  0.00  0.00    -0.302 N 
ATOM     34  H   GLN A   4       7.886   5.261  -1.273  0.00  0.00    +0.150 HD
ATOM     35  O   LEU A   3       8.138   2.141  -0.637  0.00  0.00    -0.274 OA
BRANCH  32  36
ATOM     36  CA  LEU A   3       6.097   3.483  -0.652  0.00  0.00    +0.159 C 
BRANCH  36  39
ATOM     37  C   ARG A   2       4.430   1.765  -1.325  0.00  0.00    +0.234 C 
ATOM     38  O   ARG A   2       3.846   2.513  -2.107  0.00  0.00    -0.274 OA
ATOM     39  N   LEU A   3       5.485   2.163  -0.542  0.00  0.00    -0.302 N 
ATOM     40  H   LEU A   3       5.990   1.480   0.013  0.00  0.00    +0.150 HD
BRANCH  37  41
ATOM     41  CA  ARG A   2       4.050   0.283  -1.182  0.00  0.00    +0.159 C 
BRANCH  41  43
ATOM     42  C   VAL A   1       1.870  -0.789  -0.693  0.00  0.00    +0.231 C 
ATOM     43  N   ARG A   2       2.597   0.224  -1.269  0.00  0.00    -0.303 N 
ATOM     44  H   ARG A   2       2.125   1.011  -1.709  0.00  0.00    +0.149 HD
ATOM     45  O   VAL A   1       2.403  -1.763  -0.165  0.00  0.00    -0.274 OA
BRANCH  42  46
ATOM     46  CA  VAL A   1       0.334  -0.604  -0.772  0.00  0.00    +0.140 C 
BRANCH  46  47
ATOM     47  N   VAL A   1      -0.276  -1.932  -0.992  0.00  0.00    -0.320 NA
ATOM     48  H1  VAL A   1       0.153  -2.361  -1.812  0.00  0.00    +0.119 HD
ATOM     49  H2  VAL A   1       0.007  -2.534  -0.213  0.00  0.00    +0.119 HD
ENDBRANCH  46  47
BRANCH  46  50
ATOM     50  CB  VAL A   1      -0.217   0.059   0.515  0.00  0.00    +0.009 C 
ATOM     51  CG2 VAL A   1       0.383   1.452   0.750  0.00  0.00    +0.009 C 
ATOM     52  CG1 VAL A   1      -1.746   0.184   0.478  0.00  0.00    +0.009 C 
ENDBRANCH  46  50
ENDBRANCH  42  46
ENDBRANCH  41  43
BRANCH  41  53
ATOM     53  CB  ARG A   2       4.701  -0.558  -2.290  0.00  0.00    +0.035 C 
BRANCH  53  54
ATOM     54  CG  ARG A   2       6.231  -0.544  -2.238  0.00  0.00    +0.039 C 
BRANCH  54  55
ATOM     55  CD  ARG A   2       6.844  -1.447  -3.306  0.00  0.00    +0.196 C 
BRANCH  55  56
ATOM     56  NE  ARG A   2       8.295  -1.223  -3.405  0.00  0.00    -0.279 N 
ATOM     57  HE  ARG A   2       8.721  -0.475  -2.862  0.00  0.00    +0.258 HD
ATOM     58  CZ  ARG A   2       9.128  -1.941  -4.171  0.00  0.00    +0.341 C 
ATOM     59  NH2 ARG A   2      10.417  -1.615  -4.231  0.00  0.00    -0.292 N 
ATOM     60 HH21 ARG A   2      10.758  -0.737  -3.817  0.00  0.00    +0.255 HD
ATOM     61 HH22 ARG A   2      11.090  -2.146  -4.761  0.00  0.00    +0.255 HD
ATOM     62  NH1 ARG A   2       8.700  -2.983  -4.891  0.00  0.00    -0.292 N 
ATOM     63 HH11 ARG A   2       7.729  -3.263  -4.883  0.00  0.00    +0.255 HD
ATOM     64 HH12 ARG A   2       9.332  -3.515  -5.473  0.00  0.00    +0.255 HD
ENDBRANCH  55  56
ENDBRANCH  54  55
ENDBRANCH  53  54
ENDBRANCH  41  53
ENDBRANCH  37  41
ENDBRANCH  36  39
BRANCH  36  65
ATOM     65  CB  LEU A   3       5.771   4.349   0.573  0.00  0.00    +0.034 C 
BRANCH  65  66
ATOM     66  CG  LEU A   3       4.280   4.720   0.712  0.00  0.00    -0.015 C 
ATOM     67  CD2 LEU A   3       4.037   5.402   2.061  0.00  0.00    +0.007 C 
ATOM     68  CD1 LEU A   3       3.805   5.637  -0.417  0.00  0.00    +0.007 C 
ENDBRANCH  65  66
ENDBRANCH  36  65
ENDBRANCH  32  36
ENDBRANCH   1  33
BRANCH   1  69
ATOM     69  CB  GLN A   4      10.163   3.645  -2.601  0.00  0.00    +0.041 C 
BRANCH  69  70
ATOM     70  CG  GLN A   4      11.524   2.958  -2.554  0.00  0.00    +0.098 C 
BRANCH  70  71
ATOM     71  CD  GLN A   4      11.621   1.965  -3.692  0.00  0.00    +0.211 C 
ATOM     72  OE1 GLN A   4      11.205   0.808  -3.617  0.00  0.00    -0.276 OA
ATOM     73  NE2 GLN A   4      12.127   2.467  -4.852  0.00  0.00    -0.329 N 
ATOM     74 HE21 GLN A   4      12.520   3.399  -4.920  0.00  0.00    +0.145 HD
ATOM     75 HE22 GLN A   4      12.233   1.863  -5.656  0.00  0.00    +0.145 HD
ENDBRANCH  70  71
ENDBRANCH  69  70
ENDBRANCH   1  69
TORSDOF 28
