MODEL 1
REMARK VINA RESULT:      -6.0      0.000      0.000
REMARK  Name = VTFQSAVK-mmff94.pdb
REMARK  38 active torsions:
REMARK  status: ('A' for Active; 'I' for Inactive)
REMARK    1  A    between atoms: _1  and  _2
REMARK    2  A    between atoms: _2  and  _3
REMARK    3  A    between atoms: _2  and  _5
REMARK    4  A    between atoms: _5  and  _6
REMARK    5  A    between atoms: _5  and  _7
REMARK    6  A    between atoms: _17  and  _18
REMARK    7  A    between atoms: _18  and  _19
REMARK    8  A    between atoms: _18  and  _21
REMARK    9  A    between atoms: _21  and  _22
REMARK   10  A    between atoms: _21  and  _23
REMARK   11  A    between atoms: _31  and  _32
REMARK   12  A    between atoms: _32  and  _33
REMARK   13  A    between atoms: _32  and  _35
REMARK   14  A    between atoms: _35  and  _36
REMARK   15  A    between atoms: _51  and  _52
REMARK   16  A    between atoms: _52  and  _53
REMARK   17  A    between atoms: _52  and  _55
REMARK   18  A    between atoms: _55  and  _56
REMARK   19  A    between atoms: _56  and  _57
REMARK   20  A    between atoms: _68  and  _69
REMARK   21  A    between atoms: _69  and  _70
REMARK   22  A    between atoms: _69  and  _72
REMARK   23  A    between atoms: _72  and  _73
REMARK   24  A    between atoms: _79  and  _80
REMARK   25  A    between atoms: _80  and  _81
REMARK   26  A    between atoms: _80  and  _83
REMARK   27  A    between atoms: _89  and  _90
REMARK   28  A    between atoms: _90  and  _91
REMARK   29  A    between atoms: _90  and  _93
REMARK   30  A    between atoms: _93  and  _94
REMARK   31  A    between atoms: _93  and  _95
REMARK   32  A    between atoms: _105  and  _106
REMARK   33  A    between atoms: _106  and  _107
REMARK   34  A    between atoms: _106  and  _109
REMARK   35  A    between atoms: _109  and  _110
REMARK   36  A    between atoms: _110  and  _111
REMARK   37  A    between atoms: _111  and  _112
REMARK   38  A    between atoms: _112  and  _113
REMARK                            x       y       z     vdW  Elec       q    Type
REMARK                         _______ _______ _______ _____ _____    ______ ____
ROOT
ATOM      1  CA  GLN A   4       4.708   0.225  27.617  0.00  0.00    +0.159 C 
ENDROOT
BRANCH   1   4
ATOM      2  C   PHE A   3       5.325  -1.554  25.984  0.00  0.00    +0.234 C 
ATOM      3  O   PHE A   3       4.364  -2.258  26.295  0.00  0.00    -0.274 OA
ATOM      4  N   GLN A   4       5.561  -0.331  26.564  0.00  0.00    -0.302 N 
ATOM      5  H   GLN A   4       6.396   0.200  26.329  0.00  0.00    +0.150 HD
BRANCH   2   6
ATOM      6  CA  PHE A   3       6.319  -1.952  24.876  0.00  0.00    +0.163 C 
BRANCH   6   8
ATOM      7  C   THR A   2       7.963  -3.244  26.225  0.00  0.00    +0.236 C 
ATOM      8  N   PHE A   3       6.958  -3.201  25.288  0.00  0.00    -0.302 N 
ATOM      9  H   PHE A   3       6.553  -4.062  24.932  0.00  0.00    +0.150 HD
ATOM     10  O   THR A   2       8.405  -2.240  26.784  0.00  0.00    -0.274 OA
BRANCH   7  11
ATOM     11  CA  THR A   2       8.462  -4.654  26.574  0.00  0.00    +0.187 C 
BRANCH  11  14
ATOM     12  C   VAL A   1       6.452  -5.631  27.667  0.00  0.00    +0.231 C 
ATOM     13  O   VAL A   1       6.566  -4.940  28.678  0.00  0.00    -0.274 OA
ATOM     14  N   THR A   2       7.287  -5.528  26.580  0.00  0.00    -0.301 N 
ATOM     15  H   THR A   2       7.111  -6.073  25.744  0.00  0.00    +0.150 HD
BRANCH  12  16
ATOM     16  CA  VAL A   1       5.368  -6.727  27.536  0.00  0.00    +0.140 C 
BRANCH  16  17
ATOM     17  N   VAL A   1       5.474  -7.607  28.721  0.00  0.00    -0.320 NA
ATOM     18  H1  VAL A   1       4.997  -7.128  29.492  0.00  0.00    +0.119 HD
ATOM     19  H2  VAL A   1       6.453  -7.629  29.015  0.00  0.00    +0.119 HD
ENDBRANCH  16  17
BRANCH  16  20
ATOM     20  CB  VAL A   1       3.960  -6.099  27.426  0.00  0.00    +0.009 C 
ATOM     21  CG2 VAL A   1       3.409  -6.227  26.002  0.00  0.00    +0.009 C 
ATOM     22  CG1 VAL A   1       2.968  -6.742  28.404  0.00  0.00    +0.009 C 
ENDBRANCH  16  20
ENDBRANCH  12  16
ENDBRANCH  11  14
BRANCH  11  23
ATOM     23  CB  THR A   2       9.486  -5.116  25.512  0.00  0.00    +0.141 C 
ATOM     24  CG2 THR A   2       8.897  -6.114  24.519  0.00  0.00    +0.040 C 
BRANCH  23  25
ATOM     25  OG1 THR A   2       9.965  -3.989  24.768  0.00  0.00    -0.390 OA
ATOM     26  HG1 THR A   2      10.893  -3.838  25.013  0.00  0.00    +0.210 HD
ENDBRANCH  23  25
ENDBRANCH  11  23
ENDBRANCH   7  11
ENDBRANCH   6   8
BRANCH   6  27
ATOM     27  CB  PHE A   3       5.549  -2.101  23.555  0.00  0.00    +0.067 C 
BRANCH  27  28
ATOM     28  CG  PHE A   3       5.687  -3.457  22.904  0.00  0.00    -0.045 A 
ATOM     29  CD2 PHE A   3       6.794  -3.744  22.093  0.00  0.00    +0.004 A 
ATOM     30  CE2 PHE A   3       6.931  -4.999  21.499  0.00  0.00    +0.000 A 
ATOM     31  CZ  PHE A   3       5.961  -5.978  21.702  0.00  0.00    +0.000 A 
ATOM     32  CE1 PHE A   3       4.854  -5.703  22.503  0.00  0.00    +0.000 A 
ATOM     33  CD1 PHE A   3       4.719  -4.450  23.105  0.00  0.00    +0.004 A 
ENDBRANCH  27  28
ENDBRANCH   6  27
ENDBRANCH   2   6
ENDBRANCH   1   4
BRANCH   1  34
ATOM     34  C   GLN A   4       3.600   1.018  26.896  0.00  0.00    +0.234 C 
ATOM     35  O   GLN A   4       2.585   0.473  26.462  0.00  0.00    -0.274 OA
ATOM     36  N   SER A   5       3.840   2.357  26.730  0.00  0.00    -0.301 N 
ATOM     37  H   SER A   5       4.698   2.791  27.068  0.00  0.00    +0.150 HD
BRANCH  36  38
ATOM     38  CA  SER A   5       2.975   3.210  25.910  0.00  0.00    +0.184 C 
BRANCH  38  39
ATOM     39  C   SER A   5       3.537   3.205  24.478  0.00  0.00    +0.236 C 
ATOM     40  N   ALA A   6       4.848   3.591  24.354  0.00  0.00    -0.303 N 
ATOM     41  H   ALA A   6       5.394   3.873  25.164  0.00  0.00    +0.149 HD
ATOM     42  O   SER A   5       2.840   2.893  23.510  0.00  0.00    -0.274 OA
BRANCH  40  43
ATOM     43  CA  ALA A   6       5.557   3.545  23.080  0.00  0.00    +0.156 C 
ATOM     44  CB  ALA A   6       6.756   4.482  23.058  0.00  0.00    +0.038 C 
BRANCH  43  45
ATOM     45  C   ALA A   6       6.027   2.097  22.862  0.00  0.00    +0.234 C 
ATOM     46  O   ALA A   6       6.147   1.303  23.796  0.00  0.00    -0.274 OA
ATOM     47  N   VAL A   7       6.324   1.772  21.562  0.00  0.00    -0.302 N 
ATOM     48  H   VAL A   7       6.215   2.463  20.823  0.00  0.00    +0.150 HD
BRANCH  47  49
ATOM     49  CA  VAL A   7       6.762   0.437  21.150  0.00  0.00    +0.161 C 
BRANCH  49  50
ATOM     50  C   VAL A   7       8.294   0.430  21.362  0.00  0.00    +0.234 C 
ATOM     51  N   LYS A   8       8.773   1.368  22.245  0.00  0.00    -0.304 N 
ATOM     52  H   LYS A   8       8.140   2.044  22.669  0.00  0.00    +0.149 HD
ATOM     53  O   VAL A   7       9.038  -0.386  20.812  0.00  0.00    -0.274 OA
BRANCH  51  54
ATOM     54  CA  LYS A   8      10.159   1.382  22.689  0.00  0.00    +0.136 C 
BRANCH  54  55
ATOM     55  C   LYS A   8      10.163   0.887  24.128  0.00  0.00    +0.245 C 
ATOM     56  O   LYS A   8       9.163   0.455  24.698  0.00  0.00    -0.299 OA
ENDBRANCH  54  55
BRANCH  54  57
ATOM     57  CB  LYS A   8      10.765   2.788  22.590  0.00  0.00    +0.030 C 
BRANCH  57  58
ATOM     58  CG  LYS A   8      10.379   3.693  23.765  0.00  0.00    +0.007 C 
BRANCH  58  59
ATOM     59  CD  LYS A   8      10.942   5.107  23.585  0.00  0.00    +0.051 C 
BRANCH  59  60
ATOM     60  CE  LYS A   8      12.455   5.087  23.413  0.00  0.00    +0.127 C 
BRANCH  60  61
ATOM     61  NZ  LYS A   8      12.797   5.539  22.043  0.00  0.00    +0.219 N 
ATOM     62  HZ1 LYS A   8      11.961   5.824  21.516  0.00  0.00    +0.199 HD
ATOM     63  HZ2 LYS A   8      13.251   4.787  21.506  0.00  0.00    +0.199 HD
ATOM     64  HZ3 LYS A   8      13.445   6.338  22.053  0.00  0.00    +0.199 HD
ENDBRANCH  60  61
ENDBRANCH  59  60
ENDBRANCH  58  59
ENDBRANCH  57  58
ENDBRANCH  54  57
ENDBRANCH  51  54
ENDBRANCH  49  50
BRANCH  49  65
ATOM     65  CB  VAL A   7       6.394   0.138  19.672  0.00  0.00    +0.012 C 
ATOM     66  CG2 VAL A   7       5.806  -1.267  19.484  0.00  0.00    +0.009 C 
ATOM     67  CG1 VAL A   7       5.394   1.153  19.104  0.00  0.00    +0.009 C 
ENDBRANCH  49  65
ENDBRANCH  47  49
ENDBRANCH  43  45
ENDBRANCH  40  43
ENDBRANCH  38  39
BRANCH  38  68
ATOM     68  CB  SER A   5       2.876   4.637  26.462  0.00  0.00    +0.187 C 
BRANCH  68  69
ATOM     69  OG  SER A   5       4.166   5.213  26.667  0.00  0.00    -0.393 OA
ATOM     70  H   SER A   5       4.342   5.174  27.624  0.00  0.00    +0.209 HD
ENDBRANCH  68  69
ENDBRANCH  38  68
ENDBRANCH  36  38
ENDBRANCH   1  34
BRANCH   1  71
ATOM     71  CB  GLN A   4       5.526   1.130  28.551  0.00  0.00    +0.041 C 
BRANCH  71  72
ATOM     72  CG  GLN A   4       6.939   1.418  28.045  0.00  0.00    +0.098 C 
BRANCH  72  73
ATOM     73  CD  GLN A   4       7.063   2.710  27.264  0.00  0.00    +0.211 C 
ATOM     74  OE1 GLN A   4       6.459   3.731  27.579  0.00  0.00    -0.276 OA
ATOM     75  NE2 GLN A   4       7.801   2.673  26.123  0.00  0.00    -0.329 N 
ATOM     76 HE21 GLN A   4       8.416   1.912  25.875  0.00  0.00    +0.145 HD
ATOM     77 HE22 GLN A   4       7.904   3.546  25.620  0.00  0.00    +0.145 HD
ENDBRANCH  72  73
ENDBRANCH  71  72
ENDBRANCH   1  71
TORSDOF 32
ENDMDL
MODEL 2
REMARK VINA RESULT:      -5.6      2.480      6.370
REMARK  Name = VTFQSAVK-mmff94.pdb
REMARK  38 active torsions:
REMARK  status: ('A' for Active; 'I' for Inactive)
REMARK    1  A    between atoms: _1  and  _2
REMARK    2  A    between atoms: _2  and  _3
REMARK    3  A    between atoms: _2  and  _5
REMARK    4  A    between atoms: _5  and  _6
REMARK    5  A    between atoms: _5  and  _7
REMARK    6  A    between atoms: _17  and  _18
REMARK    7  A    between atoms: _18  and  _19
REMARK    8  A    between atoms: _18  and  _21
REMARK    9  A    between atoms: _21  and  _22
REMARK   10  A    between atoms: _21  and  _23
REMARK   11  A    between atoms: _31  and  _32
REMARK   12  A    between atoms: _32  and  _33
REMARK   13  A    between atoms: _32  and  _35
REMARK   14  A    between atoms: _35  and  _36
REMARK   15  A    between atoms: _51  and  _52
REMARK   16  A    between atoms: _52  and  _53
REMARK   17  A    between atoms: _52  and  _55
REMARK   18  A    between atoms: _55  and  _56
REMARK   19  A    between atoms: _56  and  _57
REMARK   20  A    between atoms: _68  and  _69
REMARK   21  A    between atoms: _69  and  _70
REMARK   22  A    between atoms: _69  and  _72
REMARK   23  A    between atoms: _72  and  _73
REMARK   24  A    between atoms: _79  and  _80
REMARK   25  A    between atoms: _80  and  _81
REMARK   26  A    between atoms: _80  and  _83
REMARK   27  A    between atoms: _89  and  _90
REMARK   28  A    between atoms: _90  and  _91
REMARK   29  A    between atoms: _90  and  _93
REMARK   30  A    between atoms: _93  and  _94
REMARK   31  A    between atoms: _93  and  _95
REMARK   32  A    between atoms: _105  and  _106
REMARK   33  A    between atoms: _106  and  _107
REMARK   34  A    between atoms: _106  and  _109
REMARK   35  A    between atoms: _109  and  _110
REMARK   36  A    between atoms: _110  and  _111
REMARK   37  A    between atoms: _111  and  _112
REMARK   38  A    between atoms: _112  and  _113
REMARK                            x       y       z     vdW  Elec       q    Type
REMARK                         _______ _______ _______ _____ _____    ______ ____
ROOT
ATOM      1  CA  GLN A   4       8.147  -4.599  24.785  0.00  0.00    +0.159 C 
ENDROOT
BRANCH   1   4
ATOM      2  C   PHE A   3       7.327  -5.408  26.995  0.00  0.00    +0.234 C 
ATOM      3  O   PHE A   3       8.375  -6.009  27.232  0.00  0.00    -0.274 OA
ATOM      4  N   GLN A   4       7.135  -4.688  25.840  0.00  0.00    -0.302 N 
ATOM      5  H   GLN A   4       6.237  -4.252  25.646  0.00  0.00    +0.150 HD
BRANCH   2   6
ATOM      6  CA  PHE A   3       6.157  -5.358  27.996  0.00  0.00    +0.163 C 
BRANCH   6   8
ATOM      7  C   THR A   2       4.451  -3.597  28.424  0.00  0.00    +0.236 C 
ATOM      8  N   PHE A   3       5.245  -4.304  27.553  0.00  0.00    -0.302 N 
ATOM      9  H   PHE A   3       5.300  -4.033  26.576  0.00  0.00    +0.150 HD
ATOM     10  O   THR A   2       4.441  -3.798  29.638  0.00  0.00    -0.274 OA
BRANCH   7  11
ATOM     11  CA  THR A   2       3.611  -2.486  27.777  0.00  0.00    +0.187 C 
BRANCH  11  14
ATOM     12  C   VAL A   1       3.435  -0.546  29.324  0.00  0.00    +0.231 C 
ATOM     13  O   VAL A   1       2.444  -0.991  29.900  0.00  0.00    -0.274 OA
ATOM     14  N   THR A   2       4.097  -1.217  28.324  0.00  0.00    -0.301 N 
ATOM     15  H   THR A   2       4.948  -0.838  27.926  0.00  0.00    +0.150 HD
BRANCH  12  16
ATOM     16  CA  VAL A   1       4.017   0.852  29.646  0.00  0.00    +0.140 C 
BRANCH  16  17
ATOM     17  N   VAL A   1       5.479   0.700  29.817  0.00  0.00    -0.320 NA
ATOM     18  H1  VAL A   1       5.623   0.104  30.638  0.00  0.00    +0.119 HD
ATOM     19  H2  VAL A   1       5.862   1.605  30.100  0.00  0.00    +0.119 HD
ENDBRANCH  16  17
BRANCH  16  20
ATOM     20  CB  VAL A   1       3.684   1.859  28.522  0.00  0.00    +0.009 C 
ATOM     21  CG2 VAL A   1       2.175   1.916  28.262  0.00  0.00    +0.009 C 
ATOM     22  CG1 VAL A   1       4.186   3.271  28.850  0.00  0.00    +0.009 C 
ENDBRANCH  16  20
ENDBRANCH  12  16
ENDBRANCH  11  14
BRANCH  11  23
ATOM     23  CB  THR A   2       3.793  -2.529  26.242  0.00  0.00    +0.141 C 
ATOM     24  CG2 THR A   2       2.561  -3.061  25.517  0.00  0.00    +0.040 C 
BRANCH  23  25
ATOM     25  OG1 THR A   2       4.061  -1.213  25.742  0.00  0.00    -0.390 OA
ATOM     26  HG1 THR A   2       3.535  -0.580  26.260  0.00  0.00    +0.210 HD
ENDBRANCH  23  25
ENDBRANCH  11  23
ENDBRANCH   7  11
ENDBRANCH   6   8
BRANCH   6  27
ATOM     27  CB  PHE A   3       5.479  -6.736  28.030  0.00  0.00    +0.067 C 
BRANCH  27  28
ATOM     28  CG  PHE A   3       4.259  -6.852  27.148  0.00  0.00    -0.045 A 
ATOM     29  CD2 PHE A   3       2.975  -6.723  27.695  0.00  0.00    +0.004 A 
ATOM     30  CE2 PHE A   3       1.846  -6.818  26.880  0.00  0.00    +0.000 A 
ATOM     31  CZ  PHE A   3       1.986  -7.050  25.515  0.00  0.00    +0.000 A 
ATOM     32  CE1 PHE A   3       3.258  -7.184  24.960  0.00  0.00    +0.000 A 
ATOM     33  CD1 PHE A   3       4.390  -7.082  25.771  0.00  0.00    +0.004 A 
ENDBRANCH  27  28
ENDBRANCH   6  27
ENDBRANCH   2   6
ENDBRANCH   1   4
BRANCH   1  34
ATOM     34  C   GLN A   4       8.809  -3.216  24.942  0.00  0.00    +0.234 C 
ATOM     35  O   GLN A   4       9.857  -2.925  24.367  0.00  0.00    -0.274 OA
ATOM     36  N   SER A   5       8.178  -2.350  25.797  0.00  0.00    -0.301 N 
ATOM     37  H   SER A   5       7.326  -2.613  26.291  0.00  0.00    +0.150 HD
BRANCH  36  38
ATOM     38  CA  SER A   5       8.775  -1.072  26.194  0.00  0.00    +0.184 C 
BRANCH  38  39
ATOM     39  C   SER A   5       7.630  -0.126  26.594  0.00  0.00    +0.236 C 
ATOM     40  N   ALA A   6       7.746   1.169  26.153  0.00  0.00    -0.303 N 
ATOM     41  H   ALA A   6       8.552   1.470  25.610  0.00  0.00    +0.149 HD
ATOM     42  O   SER A   5       6.683  -0.512  27.283  0.00  0.00    -0.274 OA
BRANCH  40  43
ATOM     43  CA  ALA A   6       6.698   2.161  26.361  0.00  0.00    +0.156 C 
ATOM     44  CB  ALA A   6       7.260   3.571  26.480  0.00  0.00    +0.038 C 
BRANCH  43  45
ATOM     45  C   ALA A   6       5.740   2.085  25.161  0.00  0.00    +0.234 C 
ATOM     46  O   ALA A   6       4.687   1.447  25.208  0.00  0.00    -0.274 OA
ATOM     47  N   VAL A   7       6.161   2.754  24.038  0.00  0.00    -0.302 N 
ATOM     48  H   VAL A   7       7.042   3.262  24.045  0.00  0.00    +0.150 HD
BRANCH  47  49
ATOM     49  CA  VAL A   7       5.376   2.820  22.804  0.00  0.00    +0.161 C 
BRANCH  49  50
ATOM     50  C   VAL A   7       6.342   2.367  21.685  0.00  0.00    +0.234 C 
ATOM     51  N   LYS A   8       5.795   1.546  20.728  0.00  0.00    -0.304 N 
ATOM     52  H   LYS A   8       4.830   1.232  20.813  0.00  0.00    +0.149 HD
ATOM     53  O   VAL A   7       7.514   2.745  21.625  0.00  0.00    -0.274 OA
BRANCH  51  54
ATOM     54  CA  LYS A   8       6.514   1.174  19.518  0.00  0.00    +0.136 C 
BRANCH  54  55
ATOM     55  C   LYS A   8       5.465   0.898  18.451  0.00  0.00    +0.245 C 
ATOM     56  O   LYS A   8       5.599   0.047  17.574  0.00  0.00    -0.299 OA
ENDBRANCH  54  55
BRANCH  54  57
ATOM     57  CB  LYS A   8       7.400  -0.057  19.750  0.00  0.00    +0.030 C 
BRANCH  57  58
ATOM     58  CG  LYS A   8       6.871  -0.978  20.856  0.00  0.00    +0.007 C 
BRANCH  58  59
ATOM     59  CD  LYS A   8       7.905  -1.154  21.973  0.00  0.00    +0.051 C 
BRANCH  59  60
ATOM     60  CE  LYS A   8       9.209  -0.439  21.643  0.00  0.00    +0.127 C 
BRANCH  60  61
ATOM     61  NZ  LYS A   8      10.329  -1.407  21.723  0.00  0.00    +0.219 N 
ATOM     62  HZ1 LYS A   8      10.210  -2.064  22.505  0.00  0.00    +0.199 HD
ATOM     63  HZ2 LYS A   8      11.227  -0.924  21.868  0.00  0.00    +0.199 HD
ATOM     64  HZ3 LYS A   8      10.419  -1.962  20.861  0.00  0.00    +0.199 HD
ENDBRANCH  60  61
ENDBRANCH  59  60
ENDBRANCH  58  59
ENDBRANCH  57  58
ENDBRANCH  54  57
ENDBRANCH  51  54
ENDBRANCH  49  50
BRANCH  49  65
ATOM     65  CB  VAL A   7       4.834   4.250  22.539  0.00  0.00    +0.012 C 
ATOM     66  CG2 VAL A   7       3.361   4.407  22.942  0.00  0.00    +0.009 C 
ATOM     67  CG1 VAL A   7       5.645   5.325  23.274  0.00  0.00    +0.009 C 
ENDBRANCH  49  65
ENDBRANCH  47  49
ENDBRANCH  43  45
ENDBRANCH  40  43
ENDBRANCH  38  39
BRANCH  38  68
ATOM     68  CB  SER A   5       9.633  -0.462  25.078  0.00  0.00    +0.187 C 
BRANCH  68  69
ATOM     69  OG  SER A   5      10.445   0.608  25.563  0.00  0.00    -0.393 OA
ATOM     70  H   SER A   5       9.999   0.962  26.353  0.00  0.00    +0.209 HD
ENDBRANCH  68  69
ENDBRANCH  38  68
ENDBRANCH  36  38
ENDBRANCH   1  34
BRANCH   1  71
ATOM     71  CB  GLN A   4       7.496  -4.755  23.401  0.00  0.00    +0.041 C 
BRANCH  71  72
ATOM     72  CG  GLN A   4       6.112  -4.116  23.298  0.00  0.00    +0.098 C 
BRANCH  72  73
ATOM     73  CD  GLN A   4       5.062  -5.014  22.679  0.00  0.00    +0.211 C 
ATOM     74  OE1 GLN A   4       3.864  -4.747  22.713  0.00  0.00    -0.276 OA
ATOM     75  NE2 GLN A   4       5.487  -6.198  22.163  0.00  0.00    -0.329 N 
ATOM     76 HE21 GLN A   4       6.457  -6.422  21.994  0.00  0.00    +0.145 HD
ATOM     77 HE22 GLN A   4       4.785  -6.781  21.726  0.00  0.00    +0.145 HD
ENDBRANCH  72  73
ENDBRANCH  71  72
ENDBRANCH   1  71
TORSDOF 32
ENDMDL
MODEL 3
REMARK VINA RESULT:      -5.5      1.678      2.625
REMARK  Name = VTFQSAVK-mmff94.pdb
REMARK  38 active torsions:
REMARK  status: ('A' for Active; 'I' for Inactive)
REMARK    1  A    between atoms: _1  and  _2
REMARK    2  A    between atoms: _2  and  _3
REMARK    3  A    between atoms: _2  and  _5
REMARK    4  A    between atoms: _5  and  _6
REMARK    5  A    between atoms: _5  and  _7
REMARK    6  A    between atoms: _17  and  _18
REMARK    7  A    between atoms: _18  and  _19
REMARK    8  A    between atoms: _18  and  _21
REMARK    9  A    between atoms: _21  and  _22
REMARK   10  A    between atoms: _21  and  _23
REMARK   11  A    between atoms: _31  and  _32
REMARK   12  A    between atoms: _32  and  _33
REMARK   13  A    between atoms: _32  and  _35
REMARK   14  A    between atoms: _35  and  _36
REMARK   15  A    between atoms: _51  and  _52
REMARK   16  A    between atoms: _52  and  _53
REMARK   17  A    between atoms: _52  and  _55
REMARK   18  A    between atoms: _55  and  _56
REMARK   19  A    between atoms: _56  and  _57
REMARK   20  A    between atoms: _68  and  _69
REMARK   21  A    between atoms: _69  and  _70
REMARK   22  A    between atoms: _69  and  _72
REMARK   23  A    between atoms: _72  and  _73
REMARK   24  A    between atoms: _79  and  _80
REMARK   25  A    between atoms: _80  and  _81
REMARK   26  A    between atoms: _80  and  _83
REMARK   27  A    between atoms: _89  and  _90
REMARK   28  A    between atoms: _90  and  _91
REMARK   29  A    between atoms: _90  and  _93
REMARK   30  A    between atoms: _93  and  _94
REMARK   31  A    between atoms: _93  and  _95
REMARK   32  A    between atoms: _105  and  _106
REMARK   33  A    between atoms: _106  and  _107
REMARK   34  A    between atoms: _106  and  _109
REMARK   35  A    between atoms: _109  and  _110
REMARK   36  A    between atoms: _110  and  _111
REMARK   37  A    between atoms: _111  and  _112
REMARK   38  A    between atoms: _112  and  _113
REMARK                            x       y       z     vdW  Elec       q    Type
REMARK                         _______ _______ _______ _____ _____    ______ ____
ROOT
ATOM      1  CA  GLN A   4       4.182   0.027  27.518  0.00  0.00    +0.159 C 
ENDROOT
BRANCH   1   4
ATOM      2  C   PHE A   3       5.058  -1.690  25.939  0.00  0.00    +0.234 C 
ATOM      3  O   PHE A   3       4.112  -2.450  26.145  0.00  0.00    -0.274 OA
ATOM      4  N   GLN A   4       5.166  -0.465  26.551  0.00  0.00    -0.302 N 
ATOM      5  H   GLN A   4       5.989   0.115  26.407  0.00  0.00    +0.150 HD
BRANCH   2   6
ATOM      6  CA  PHE A   3       6.179  -2.017  24.934  0.00  0.00    +0.163 C 
BRANCH   6   8
ATOM      7  C   THR A   2       7.894  -3.417  26.070  0.00  0.00    +0.236 C 
ATOM      8  N   PHE A   3       6.749  -3.307  25.317  0.00  0.00    -0.302 N 
ATOM      9  H   PHE A   3       6.202  -4.133  25.095  0.00  0.00    +0.150 HD
ATOM     10  O   THR A   2       8.528  -2.442  26.474  0.00  0.00    -0.274 OA
BRANCH   7  11
ATOM     11  CA  THR A   2       8.300  -4.855  26.425  0.00  0.00    +0.187 C 
BRANCH  11  14
ATOM     12  C   VAL A   1       6.309  -5.737  27.628  0.00  0.00    +0.231 C 
ATOM     13  O   VAL A   1       6.552  -5.110  28.657  0.00  0.00    -0.274 OA
ATOM     14  N   THR A   2       7.064  -5.639  26.484  0.00  0.00    -0.301 N 
ATOM     15  H   THR A   2       6.785  -6.125  25.640  0.00  0.00    +0.150 HD
BRANCH  12  16
ATOM     16  CA  VAL A   1       5.136  -6.743  27.532  0.00  0.00    +0.140 C 
BRANCH  16  17
ATOM     17  N   VAL A   1       5.235  -7.658  28.691  0.00  0.00    -0.320 NA
ATOM     18  H1  VAL A   1       6.089  -8.210  28.563  0.00  0.00    +0.119 HD
ATOM     19  H2  VAL A   1       4.484  -8.347  28.617  0.00  0.00    +0.119 HD
ENDBRANCH  16  17
BRANCH  16  20
ATOM     20  CB  VAL A   1       3.778  -6.005  27.512  0.00  0.00    +0.009 C 
ATOM     21  CG2 VAL A   1       3.088  -6.159  26.153  0.00  0.00    +0.009 C 
ATOM     22  CG1 VAL A   1       2.835  -6.512  28.610  0.00  0.00    +0.009 C 
ENDBRANCH  16  20
ENDBRANCH  12  16
ENDBRANCH  11  14
BRANCH  11  23
ATOM     23  CB  THR A   2       9.251  -5.406  25.338  0.00  0.00    +0.141 C 
ATOM     24  CG2 THR A   2       8.521  -5.791  24.055  0.00  0.00    +0.040 C 
BRANCH  23  25
ATOM     25  OG1 THR A   2      10.237  -4.421  25.003  0.00  0.00    -0.390 OA
ATOM     26  HG1 THR A   2       9.818  -3.546  25.051  0.00  0.00    +0.210 HD
ENDBRANCH  23  25
ENDBRANCH  11  23
ENDBRANCH   7  11
ENDBRANCH   6   8
BRANCH   6  27
ATOM     27  CB  PHE A   3       5.579  -2.043  23.520  0.00  0.00    +0.067 C 
BRANCH  27  28
ATOM     28  CG  PHE A   3       5.554  -3.410  22.878  0.00  0.00    -0.045 A 
ATOM     29  CD2 PHE A   3       6.361  -3.684  21.765  0.00  0.00    +0.004 A 
ATOM     30  CE2 PHE A   3       6.350  -4.950  21.177  0.00  0.00    +0.000 A 
ATOM     31  CZ  PHE A   3       5.529  -5.951  21.690  0.00  0.00    +0.000 A 
ATOM     32  CE1 PHE A   3       4.720  -5.689  22.794  0.00  0.00    +0.000 A 
ATOM     33  CD1 PHE A   3       4.735  -4.426  23.389  0.00  0.00    +0.004 A 
ENDBRANCH  27  28
ENDBRANCH   6  27
ENDBRANCH   2   6
ENDBRANCH   1   4
BRANCH   1  34
ATOM     34  C   GLN A   4       4.278   1.565  27.482  0.00  0.00    +0.234 C 
ATOM     35  O   GLN A   4       3.308   2.286  27.715  0.00  0.00    -0.274 OA
ATOM     36  N   SER A   5       5.501   2.075  27.129  0.00  0.00    -0.301 N 
ATOM     37  H   SER A   5       6.289   1.468  26.909  0.00  0.00    +0.150 HD
BRANCH  36  38
ATOM     38  CA  SER A   5       5.707   3.503  26.872  0.00  0.00    +0.184 C 
BRANCH  38  39
ATOM     39  C   SER A   5       5.385   3.762  25.390  0.00  0.00    +0.236 C 
ATOM     40  N   ALA A   6       6.451   3.684  24.529  0.00  0.00    -0.303 N 
ATOM     41  H   ALA A   6       7.388   3.482  24.866  0.00  0.00    +0.149 HD
ATOM     42  O   SER A   5       4.244   4.041  25.015  0.00  0.00    -0.274 OA
BRANCH  40  43
ATOM     43  CA  ALA A   6       6.295   3.804  23.084  0.00  0.00    +0.156 C 
ATOM     44  CB  ALA A   6       7.487   4.495  22.436  0.00  0.00    +0.038 C 
BRANCH  43  45
ATOM     45  C   ALA A   6       6.147   2.384  22.513  0.00  0.00    +0.234 C 
ATOM     46  O   ALA A   6       5.964   1.406  23.239  0.00  0.00    -0.274 OA
ATOM     47  N   VAL A   7       6.260   2.291  21.148  0.00  0.00    -0.302 N 
ATOM     48  H   VAL A   7       6.416   3.127  20.589  0.00  0.00    +0.150 HD
BRANCH  47  49
ATOM     49  CA  VAL A   7       6.122   1.031  20.416  0.00  0.00    +0.161 C 
BRANCH  49  50
ATOM     50  C   VAL A   7       7.550   0.439  20.355  0.00  0.00    +0.234 C 
ATOM     51  N   LYS A   8       8.129   0.170  21.572  0.00  0.00    -0.304 N 
ATOM     52  H   LYS A   8       7.645   0.410  22.435  0.00  0.00    +0.149 HD
ATOM     53  O   VAL A   7       8.119   0.185  19.292  0.00  0.00    -0.274 OA
BRANCH  51  54
ATOM     54  CA  LYS A   8       9.391  -0.547  21.691  0.00  0.00    +0.136 C 
BRANCH  54  55
ATOM     55  C   LYS A   8       9.129  -1.749  22.586  0.00  0.00    +0.245 C 
ATOM     56  O   LYS A   8       9.917  -2.136  23.448  0.00  0.00    -0.299 OA
ENDBRANCH  54  55
BRANCH  54  57
ATOM     57  CB  LYS A   8      10.490   0.346  22.278  0.00  0.00    +0.030 C 
BRANCH  57  58
ATOM     58  CG  LYS A   8       9.997   1.757  22.624  0.00  0.00    +0.007 C 
BRANCH  58  59
ATOM     59  CD  LYS A   8      10.101   2.027  24.129  0.00  0.00    +0.051 C 
BRANCH  59  60
ATOM     60  CE  LYS A   8       9.069   1.224  24.912  0.00  0.00    +0.127 C 
BRANCH  60  61
ATOM     61  NZ  LYS A   8       9.759   0.159  25.678  0.00  0.00    +0.219 N 
ATOM     62  HZ1 LYS A   8      10.520   0.538  26.258  0.00  0.00    +0.199 HD
ATOM     63  HZ2 LYS A   8      10.179  -0.539  25.048  0.00  0.00    +0.199 HD
ATOM     64  HZ3 LYS A   8       9.114  -0.344  26.302  0.00  0.00    +0.199 HD
ENDBRANCH  60  61
ENDBRANCH  59  60
ENDBRANCH  58  59
ENDBRANCH  57  58
ENDBRANCH  54  57
ENDBRANCH  51  54
ENDBRANCH  49  50
BRANCH  49  65
ATOM     65  CB  VAL A   7       5.538   1.248  18.994  0.00  0.00    +0.012 C 
ATOM     66  CG2 VAL A   7       5.486  -0.048  18.174  0.00  0.00    +0.009 C 
ATOM     67  CG1 VAL A   7       4.127   1.847  19.029  0.00  0.00    +0.009 C 
ENDBRANCH  49  65
ENDBRANCH  47  49
ENDBRANCH  43  45
ENDBRANCH  40  43
ENDBRANCH  38  39
BRANCH  38  68
ATOM     68  CB  SER A   5       7.131   3.955  27.217  0.00  0.00    +0.187 C 
BRANCH  68  69
ATOM     69  OG  SER A   5       7.305   5.357  27.006  0.00  0.00    -0.393 OA
ATOM     70  H   SER A   5       7.880   5.679  27.723  0.00  0.00    +0.209 HD
ENDBRANCH  68  69
ENDBRANCH  38  68
ENDBRANCH  36  38
ENDBRANCH   1  34
BRANCH   1  71
ATOM     71  CB  GLN A   4       4.485  -0.520  28.922  0.00  0.00    +0.041 C 
BRANCH  71  72
ATOM     72  CG  GLN A   4       3.256  -1.066  29.647  0.00  0.00    +0.098 C 
BRANCH  72  73
ATOM     73  CD  GLN A   4       3.080  -2.564  29.521  0.00  0.00    +0.211 C 
ATOM     74  OE1 GLN A   4       3.963  -3.359  29.829  0.00  0.00    -0.276 OA
ATOM     75  NE2 GLN A   4       1.926  -3.005  28.951  0.00  0.00    -0.329 N 
ATOM     76 HE21 GLN A   4       1.119  -2.421  28.792  0.00  0.00    +0.145 HD
ATOM     77 HE22 GLN A   4       1.802  -4.008  28.896  0.00  0.00    +0.145 HD
ENDBRANCH  72  73
ENDBRANCH  71  72
ENDBRANCH   1  71
TORSDOF 32
ENDMDL
MODEL 4
REMARK VINA RESULT:      -5.5      2.120      4.984
REMARK  Name = VTFQSAVK-mmff94.pdb
REMARK  38 active torsions:
REMARK  status: ('A' for Active; 'I' for Inactive)
REMARK    1  A    between atoms: _1  and  _2
REMARK    2  A    between atoms: _2  and  _3
REMARK    3  A    between atoms: _2  and  _5
REMARK    4  A    between atoms: _5  and  _6
REMARK    5  A    between atoms: _5  and  _7
REMARK    6  A    between atoms: _17  and  _18
REMARK    7  A    between atoms: _18  and  _19
REMARK    8  A    between atoms: _18  and  _21
REMARK    9  A    between atoms: _21  and  _22
REMARK   10  A    between atoms: _21  and  _23
REMARK   11  A    between atoms: _31  and  _32
REMARK   12  A    between atoms: _32  and  _33
REMARK   13  A    between atoms: _32  and  _35
REMARK   14  A    between atoms: _35  and  _36
REMARK   15  A    between atoms: _51  and  _52
REMARK   16  A    between atoms: _52  and  _53
REMARK   17  A    between atoms: _52  and  _55
REMARK   18  A    between atoms: _55  and  _56
REMARK   19  A    between atoms: _56  and  _57
REMARK   20  A    between atoms: _68  and  _69
REMARK   21  A    between atoms: _69  and  _70
REMARK   22  A    between atoms: _69  and  _72
REMARK   23  A    between atoms: _72  and  _73
REMARK   24  A    between atoms: _79  and  _80
REMARK   25  A    between atoms: _80  and  _81
REMARK   26  A    between atoms: _80  and  _83
REMARK   27  A    between atoms: _89  and  _90
REMARK   28  A    between atoms: _90  and  _91
REMARK   29  A    between atoms: _90  and  _93
REMARK   30  A    between atoms: _93  and  _94
REMARK   31  A    between atoms: _93  and  _95
REMARK   32  A    between atoms: _105  and  _106
REMARK   33  A    between atoms: _106  and  _107
REMARK   34  A    between atoms: _106  and  _109
REMARK   35  A    between atoms: _109  and  _110
REMARK   36  A    between atoms: _110  and  _111
REMARK   37  A    between atoms: _111  and  _112
REMARK   38  A    between atoms: _112  and  _113
REMARK                            x       y       z     vdW  Elec       q    Type
REMARK                         _______ _______ _______ _____ _____    ______ ____
ROOT
ATOM      1  CA  GLN A   4       4.891   1.442  27.255  0.00  0.00    +0.159 C 
ENDROOT
BRANCH   1   4
ATOM      2  C   PHE A   3       3.501  -0.625  27.158  0.00  0.00    +0.234 C 
ATOM      3  O   PHE A   3       2.453   0.013  27.048  0.00  0.00    -0.274 OA
ATOM      4  N   GLN A   4       4.728  -0.014  27.250  0.00  0.00    -0.302 N 
ATOM      5  H   GLN A   4       5.570  -0.565  27.401  0.00  0.00    +0.150 HD
BRANCH   2   6
ATOM      6  CA  PHE A   3       3.539  -2.165  27.143  0.00  0.00    +0.163 C 
BRANCH   6   8
ATOM      7  C   THR A   2       3.764  -3.540  25.081  0.00  0.00    +0.236 C 
ATOM      8  N   PHE A   3       4.247  -2.574  25.931  0.00  0.00    -0.302 N 
ATOM      9  H   PHE A   3       5.069  -2.035  25.678  0.00  0.00    +0.150 HD
ATOM     10  O   THR A   2       2.704  -4.137  25.276  0.00  0.00    -0.274 OA
BRANCH   7  11
ATOM     11  CA  THR A   2       4.616  -3.785  23.828  0.00  0.00    +0.187 C 
BRANCH  11  14
ATOM     12  C   VAL A   1       7.048  -3.495  23.392  0.00  0.00    +0.231 C 
ATOM     13  O   VAL A   1       6.881  -3.166  22.218  0.00  0.00    -0.274 OA
ATOM     14  N   THR A   2       6.016  -3.762  24.259  0.00  0.00    -0.301 N 
ATOM     15  H   THR A   2       6.202  -3.963  25.234  0.00  0.00    +0.150 HD
BRANCH  12  16
ATOM     16  CA  VAL A   1       8.457  -3.681  24.003  0.00  0.00    +0.140 C 
BRANCH  16  17
ATOM     17  N   VAL A   1       8.997  -2.335  24.302  0.00  0.00    -0.320 NA
ATOM     18  H1  VAL A   1       9.839  -2.217  23.728  0.00  0.00    +0.119 HD
ATOM     19  H2  VAL A   1       9.352  -2.341  25.260  0.00  0.00    +0.119 HD
ENDBRANCH  16  17
BRANCH  16  20
ATOM     20  CB  VAL A   1       8.395  -4.557  25.275  0.00  0.00    +0.009 C 
ATOM     21  CG2 VAL A   1       9.466  -5.652  25.242  0.00  0.00    +0.009 C 
ATOM     22  CG1 VAL A   1       8.572  -3.726  26.552  0.00  0.00    +0.009 C 
ENDBRANCH  16  20
ENDBRANCH  12  16
ENDBRANCH  11  14
BRANCH  11  23
ATOM     23  CB  THR A   2       4.251  -5.157  23.216  0.00  0.00    +0.141 C 
ATOM     24  CG2 THR A   2       4.489  -6.315  24.181  0.00  0.00    +0.040 C 
BRANCH  23  25
ATOM     25  OG1 THR A   2       2.868  -5.176  22.841  0.00  0.00    -0.390 OA
ATOM     26  HG1 THR A   2       2.633  -6.088  22.601  0.00  0.00    +0.210 HD
ENDBRANCH  23  25
ENDBRANCH  11  23
ENDBRANCH   7  11
ENDBRANCH   6   8
BRANCH   6  27
ATOM     27  CB  PHE A   3       4.240  -2.652  28.420  0.00  0.00    +0.067 C 
BRANCH  27  28
ATOM     28  CG  PHE A   3       4.395  -4.152  28.511  0.00  0.00    -0.045 A 
ATOM     29  CD2 PHE A   3       3.304  -4.956  28.868  0.00  0.00    +0.004 A 
ATOM     30  CE2 PHE A   3       3.440  -6.342  28.941  0.00  0.00    +0.000 A 
ATOM     31  CZ  PHE A   3       4.668  -6.940  28.668  0.00  0.00    +0.000 A 
ATOM     32  CE1 PHE A   3       5.761  -6.150  28.317  0.00  0.00    +0.000 A 
ATOM     33  CD1 PHE A   3       5.626  -4.763  28.235  0.00  0.00    +0.004 A 
ENDBRANCH  27  28
ENDBRANCH   6  27
ENDBRANCH   2   6
ENDBRANCH   1   4
BRANCH   1  34
ATOM     34  C   GLN A   4       4.472   1.923  25.851  0.00  0.00    +0.234 C 
ATOM     35  O   GLN A   4       4.649   1.235  24.846  0.00  0.00    -0.274 OA
ATOM     36  N   SER A   5       3.934   3.182  25.791  0.00  0.00    -0.301 N 
ATOM     37  H   SER A   5       3.820   3.754  26.627  0.00  0.00    +0.150 HD
BRANCH  36  38
ATOM     38  CA  SER A   5       3.656   3.853  24.518  0.00  0.00    +0.184 C 
BRANCH  38  39
ATOM     39  C   SER A   5       4.757   4.904  24.294  0.00  0.00    +0.236 C 
ATOM     40  N   ALA A   6       5.902   4.731  25.030  0.00  0.00    -0.303 N 
ATOM     41  H   ALA A   6       5.995   3.961  25.687  0.00  0.00    +0.149 HD
ATOM     42  O   SER A   5       4.601   5.848  23.516  0.00  0.00    -0.274 OA
BRANCH  40  43
ATOM     43  CA  ALA A   6       7.074   5.581  24.859  0.00  0.00    +0.156 C 
ATOM     44  CB  ALA A   6       8.004   5.524  26.063  0.00  0.00    +0.038 C 
BRANCH  43  45
ATOM     45  C   ALA A   6       7.821   5.097  23.605  0.00  0.00    +0.234 C 
ATOM     46  O   ALA A   6       7.927   5.799  22.599  0.00  0.00    -0.274 OA
ATOM     47  N   VAL A   7       8.331   3.825  23.687  0.00  0.00    -0.302 N 
ATOM     48  H   VAL A   7       8.213   3.280  24.538  0.00  0.00    +0.150 HD
BRANCH  47  49
ATOM     49  CA  VAL A   7       9.095   3.197  22.608  0.00  0.00    +0.161 C 
BRANCH  49  50
ATOM     50  C   VAL A   7       8.263   1.963  22.186  0.00  0.00    +0.234 C 
ATOM     51  N   LYS A   8       8.790   1.218  21.159  0.00  0.00    -0.304 N 
ATOM     52  H   LYS A   8       9.643   1.519  20.692  0.00  0.00    +0.149 HD
ATOM     53  O   VAL A   7       7.218   1.640  22.756  0.00  0.00    -0.274 OA
BRANCH  51  54
ATOM     54  CA  LYS A   8       8.227  -0.065  20.761  0.00  0.00    +0.136 C 
BRANCH  54  55
ATOM     55  C   LYS A   8       9.304  -1.111  21.007  0.00  0.00    +0.245 C 
ATOM     56  O   LYS A   8      10.083  -1.070  21.957  0.00  0.00    -0.299 OA
ENDBRANCH  54  55
BRANCH  54  57
ATOM     57  CB  LYS A   8       7.797  -0.054  19.288  0.00  0.00    +0.030 C 
BRANCH  57  58
ATOM     58  CG  LYS A   8       6.283  -0.211  19.103  0.00  0.00    +0.007 C 
BRANCH  58  59
ATOM     59  CD  LYS A   8       5.689   0.982  18.348  0.00  0.00    +0.051 C 
BRANCH  59  60
ATOM     60  CE  LYS A   8       4.586   1.658  19.153  0.00  0.00    +0.127 C 
BRANCH  60  61
ATOM     61  NZ  LYS A   8       5.139   2.117  20.450  0.00  0.00    +0.219 N 
ATOM     62  HZ1 LYS A   8       4.625   2.929  20.817  0.00  0.00    +0.199 HD
ATOM     63  HZ2 LYS A   8       6.124   2.401  20.353  0.00  0.00    +0.199 HD
ATOM     64  HZ3 LYS A   8       5.105   1.378  21.165  0.00  0.00    +0.199 HD
ENDBRANCH  60  61
ENDBRANCH  59  60
ENDBRANCH  58  59
ENDBRANCH  57  58
ENDBRANCH  54  57
ENDBRANCH  51  54
ENDBRANCH  49  50
BRANCH  49  65
ATOM     65  CB  VAL A   7      10.520   2.789  23.069  0.00  0.00    +0.012 C 
ATOM     66  CG2 VAL A   7      11.376   3.995  23.475  0.00  0.00    +0.009 C 
ATOM     67  CG1 VAL A   7      10.490   1.807  24.247  0.00  0.00    +0.009 C 
ENDBRANCH  49  65
ENDBRANCH  47  49
ENDBRANCH  43  45
ENDBRANCH  40  43
ENDBRANCH  38  39
BRANCH  38  68
ATOM     68  CB  SER A   5       2.263   4.495  24.493  0.00  0.00    +0.187 C 
BRANCH  68  69
ATOM     69  OG  SER A   5       2.252   5.754  25.167  0.00  0.00    -0.393 OA
ATOM     70  H   SER A   5       2.963   6.289  24.771  0.00  0.00    +0.209 HD
ENDBRANCH  68  69
ENDBRANCH  38  68
ENDBRANCH  36  38
ENDBRANCH   1  34
BRANCH   1  71
ATOM     71  CB  GLN A   4       6.348   1.820  27.565  0.00  0.00    +0.041 C 
BRANCH  71  72
ATOM     72  CG  GLN A   4       7.309   1.561  26.407  0.00  0.00    +0.098 C 
BRANCH  72  73
ATOM     73  CD  GLN A   4       7.753   0.119  26.282  0.00  0.00    +0.211 C 
ATOM     74  OE1 GLN A   4       7.054  -0.742  25.756  0.00  0.00    -0.276 OA
ATOM     75  NE2 GLN A   4       8.930  -0.219  26.874  0.00  0.00    -0.329 N 
ATOM     76 HE21 GLN A   4       9.603   0.452  27.211  0.00  0.00    +0.145 HD
ATOM     77 HE22 GLN A   4       9.235  -1.178  26.763  0.00  0.00    +0.145 HD
ENDBRANCH  72  73
ENDBRANCH  71  72
ENDBRANCH   1  71
TORSDOF 32
ENDMDL
MODEL 5
REMARK VINA RESULT:      -5.5      1.645      4.541
REMARK  Name = VTFQSAVK-mmff94.pdb
REMARK  38 active torsions:
REMARK  status: ('A' for Active; 'I' for Inactive)
REMARK    1  A    between atoms: _1  and  _2
REMARK    2  A    between atoms: _2  and  _3
REMARK    3  A    between atoms: _2  and  _5
REMARK    4  A    between atoms: _5  and  _6
REMARK    5  A    between atoms: _5  and  _7
REMARK    6  A    between atoms: _17  and  _18
REMARK    7  A    between atoms: _18  and  _19
REMARK    8  A    between atoms: _18  and  _21
REMARK    9  A    between atoms: _21  and  _22
REMARK   10  A    between atoms: _21  and  _23
REMARK   11  A    between atoms: _31  and  _32
REMARK   12  A    between atoms: _32  and  _33
REMARK   13  A    between atoms: _32  and  _35
REMARK   14  A    between atoms: _35  and  _36
REMARK   15  A    between atoms: _51  and  _52
REMARK   16  A    between atoms: _52  and  _53
REMARK   17  A    between atoms: _52  and  _55
REMARK   18  A    between atoms: _55  and  _56
REMARK   19  A    between atoms: _56  and  _57
REMARK   20  A    between atoms: _68  and  _69
REMARK   21  A    between atoms: _69  and  _70
REMARK   22  A    between atoms: _69  and  _72
REMARK   23  A    between atoms: _72  and  _73
REMARK   24  A    between atoms: _79  and  _80
REMARK   25  A    between atoms: _80  and  _81
REMARK   26  A    between atoms: _80  and  _83
REMARK   27  A    between atoms: _89  and  _90
REMARK   28  A    between atoms: _90  and  _91
REMARK   29  A    between atoms: _90  and  _93
REMARK   30  A    between atoms: _93  and  _94
REMARK   31  A    between atoms: _93  and  _95
REMARK   32  A    between atoms: _105  and  _106
REMARK   33  A    between atoms: _106  and  _107
REMARK   34  A    between atoms: _106  and  _109
REMARK   35  A    between atoms: _109  and  _110
REMARK   36  A    between atoms: _110  and  _111
REMARK   37  A    between atoms: _111  and  _112
REMARK   38  A    between atoms: _112  and  _113
REMARK                            x       y       z     vdW  Elec       q    Type
REMARK                         _______ _______ _______ _____ _____    ______ ____
ROOT
ATOM      1  CA  GLN A   4       7.096   1.291  21.891  0.00  0.00    +0.159 C 
ENDROOT
BRANCH   1   4
ATOM      2  C   PHE A   3       7.657  -1.137  21.922  0.00  0.00    +0.234 C 
ATOM      3  O   PHE A   3       8.795  -0.941  21.495  0.00  0.00    -0.274 OA
ATOM      4  N   GLN A   4       6.772  -0.112  22.156  0.00  0.00    -0.302 N 
ATOM      5  H   GLN A   4       5.819  -0.309  22.453  0.00  0.00    +0.150 HD
BRANCH   2   6
ATOM      6  CA  PHE A   3       7.141  -2.541  22.290  0.00  0.00    +0.163 C 
BRANCH   6   8
ATOM      7  C   THR A   2       7.905  -4.059  24.107  0.00  0.00    +0.236 C 
ATOM      8  N   PHE A   3       7.541  -2.808  23.671  0.00  0.00    -0.302 N 
ATOM      9  H   PHE A   3       7.648  -2.003  24.280  0.00  0.00    +0.150 HD
ATOM     10  O   THR A   2       7.916  -5.049  23.376  0.00  0.00    -0.274 OA
BRANCH   7  11
ATOM     11  CA  THR A   2       8.357  -4.127  25.573  0.00  0.00    +0.187 C 
BRANCH  11  14
ATOM     12  C   VAL A   1       6.506  -4.687  27.139  0.00  0.00    +0.231 C 
ATOM     13  O   VAL A   1       6.245  -3.510  27.380  0.00  0.00    -0.274 OA
ATOM     14  N   THR A   2       7.472  -5.082  26.244  0.00  0.00    -0.301 N 
ATOM     15  H   THR A   2       7.604  -6.063  26.029  0.00  0.00    +0.150 HD
BRANCH  12  16
ATOM     16  CA  VAL A   1       5.791  -5.855  27.860  0.00  0.00    +0.140 C 
BRANCH  16  17
ATOM     17  N   VAL A   1       6.752  -6.445  28.819  0.00  0.00    -0.320 NA
ATOM     18  H1  VAL A   1       7.680  -6.091  28.567  0.00  0.00    +0.119 HD
ATOM     19  H2  VAL A   1       6.812  -7.448  28.632  0.00  0.00    +0.119 HD
ENDBRANCH  16  17
BRANCH  16  20
ATOM     20  CB  VAL A   1       4.514  -5.360  28.576  0.00  0.00    +0.009 C 
ATOM     21  CG2 VAL A   1       3.329  -6.289  28.292  0.00  0.00    +0.009 C 
ATOM     22  CG1 VAL A   1       4.712  -5.256  30.093  0.00  0.00    +0.009 C 
ENDBRANCH  16  20
ENDBRANCH  12  16
ENDBRANCH  11  14
BRANCH  11  23
ATOM     23  CB  THR A   2       9.827  -4.600  25.638  0.00  0.00    +0.141 C 
ATOM     24  CG2 THR A   2       9.958  -6.120  25.660  0.00  0.00    +0.040 C 
BRANCH  23  25
ATOM     25  OG1 THR A   2      10.551  -4.115  24.500  0.00  0.00    -0.390 OA
ATOM     26  HG1 THR A   2      11.029  -3.312  24.767  0.00  0.00    +0.210 HD
ENDBRANCH  23  25
ENDBRANCH  11  23
ENDBRANCH   7  11
ENDBRANCH   6   8
BRANCH   6  27
ATOM     27  CB  PHE A   3       5.615  -2.566  22.111  0.00  0.00    +0.067 C 
BRANCH  27  28
ATOM     28  CG  PHE A   3       4.902  -3.566  22.990  0.00  0.00    -0.045 A 
ATOM     29  CD2 PHE A   3       4.399  -3.179  24.240  0.00  0.00    +0.004 A 
ATOM     30  CE2 PHE A   3       3.730  -4.097  25.049  0.00  0.00    +0.000 A 
ATOM     31  CZ  PHE A   3       3.562  -5.412  24.624  0.00  0.00    +0.000 A 
ATOM     32  CE1 PHE A   3       4.061  -5.810  23.385  0.00  0.00    +0.000 A 
ATOM     33  CD1 PHE A   3       4.725  -4.892  22.570  0.00  0.00    +0.004 A 
ENDBRANCH  27  28
ENDBRANCH   6  27
ENDBRANCH   2   6
ENDBRANCH   1   4
BRANCH   1  34
ATOM     34  C   GLN A   4       6.124   2.124  22.750  0.00  0.00    +0.234 C 
ATOM     35  O   GLN A   4       5.668   1.704  23.813  0.00  0.00    -0.274 OA
ATOM     36  N   SER A   5       5.768   3.342  22.231  0.00  0.00    -0.301 N 
ATOM     37  H   SER A   5       6.130   3.667  21.335  0.00  0.00    +0.150 HD
BRANCH  36  38
ATOM     38  CA  SER A   5       4.718   4.170  22.832  0.00  0.00    +0.184 C 
BRANCH  38  39
ATOM     39  C   SER A   5       5.298   4.804  24.108  0.00  0.00    +0.236 C 
ATOM     40  N   ALA A   6       4.875   4.252  25.291  0.00  0.00    -0.303 N 
ATOM     41  H   ALA A   6       4.209   3.483  25.306  0.00  0.00    +0.149 HD
ATOM     42  O   SER A   5       6.076   5.759  24.059  0.00  0.00    -0.274 OA
BRANCH  40  43
ATOM     43  CA  ALA A   6       5.407   4.672  26.582  0.00  0.00    +0.156 C 
ATOM     44  CB  ALA A   6       4.303   4.947  27.594  0.00  0.00    +0.038 C 
BRANCH  43  45
ATOM     45  C   ALA A   6       6.315   3.545  27.100  0.00  0.00    +0.234 C 
ATOM     46  O   ALA A   6       7.354   3.778  27.719  0.00  0.00    -0.274 OA
ATOM     47  N   VAL A   7       5.893   2.273  26.798  0.00  0.00    -0.302 N 
ATOM     48  H   VAL A   7       5.030   2.130  26.279  0.00  0.00    +0.150 HD
BRANCH  47  49
ATOM     49  CA  VAL A   7       6.608   1.069  27.226  0.00  0.00    +0.161 C 
BRANCH  49  50
ATOM     50  C   VAL A   7       7.383   0.592  25.974  0.00  0.00    +0.234 C 
ATOM     51  N   LYS A   8       8.404   1.413  25.564  0.00  0.00    -0.304 N 
ATOM     52  H   LYS A   8       8.576   2.297  26.040  0.00  0.00    +0.149 HD
ATOM     53  O   VAL A   7       7.133  -0.472  25.404  0.00  0.00    -0.274 OA
BRANCH  51  54
ATOM     54  CA  LYS A   8       9.340   1.027  24.516  0.00  0.00    +0.136 C 
BRANCH  54  55
ATOM     55  C   LYS A   8      10.109  -0.178  25.038  0.00  0.00    +0.245 C 
ATOM     56  O   LYS A   8      10.127  -1.267  24.468  0.00  0.00    -0.299 OA
ENDBRANCH  54  55
BRANCH  54  57
ATOM     57  CB  LYS A   8      10.292   2.177  24.164  0.00  0.00    +0.030 C 
BRANCH  57  58
ATOM     58  CG  LYS A   8       9.569   3.405  23.600  0.00  0.00    +0.007 C 
BRANCH  58  59
ATOM     59  CD  LYS A   8      10.407   4.675  23.780  0.00  0.00    +0.051 C 
BRANCH  59  60
ATOM     60  CE  LYS A   8      11.864   4.440  23.402  0.00  0.00    +0.127 C 
BRANCH  60  61
ATOM     61  NZ  LYS A   8      12.214   5.303  22.248  0.00  0.00    +0.219 N 
ATOM     62  HZ1 LYS A   8      12.212   6.300  22.504  0.00  0.00    +0.199 HD
ATOM     63  HZ2 LYS A   8      11.539   5.186  21.479  0.00  0.00    +0.199 HD
ATOM     64  HZ3 LYS A   8      13.145   5.081  21.871  0.00  0.00    +0.199 HD
ENDBRANCH  60  61
ENDBRANCH  59  60
ENDBRANCH  58  59
ENDBRANCH  57  58
ENDBRANCH  54  57
ENDBRANCH  51  54
ENDBRANCH  49  50
BRANCH  49  65
ATOM     65  CB  VAL A   7       5.638  -0.026  27.743  0.00  0.00    +0.012 C 
ATOM     66  CG2 VAL A   7       5.204   0.209  29.196  0.00  0.00    +0.009 C 
ATOM     67  CG1 VAL A   7       4.374  -0.138  26.880  0.00  0.00    +0.009 C 
ENDBRANCH  49  65
ENDBRANCH  47  49
ENDBRANCH  43  45
ENDBRANCH  40  43
ENDBRANCH  38  39
BRANCH  38  68
ATOM     68  CB  SER A   5       3.450   3.364  23.140  0.00  0.00    +0.187 C 
BRANCH  68  69
ATOM     69  OG  SER A   5       2.845   2.859  21.950  0.00  0.00    -0.393 OA
ATOM     70  H   SER A   5       2.011   2.434  22.218  0.00  0.00    +0.209 HD
ENDBRANCH  68  69
ENDBRANCH  38  68
ENDBRANCH  36  38
ENDBRANCH   1  34
BRANCH   1  71
ATOM     71  CB  GLN A   4       6.935   1.608  20.396  0.00  0.00    +0.041 C 
BRANCH  71  72
ATOM     72  CG  GLN A   4       5.896   0.736  19.692  0.00  0.00    +0.098 C 
BRANCH  72  73
ATOM     73  CD  GLN A   4       6.446  -0.065  18.531  0.00  0.00    +0.211 C 
ATOM     74  OE1 GLN A   4       7.651  -0.213  18.345  0.00  0.00    -0.276 OA
ATOM     75  NE2 GLN A   4       5.548  -0.540  17.627  0.00  0.00    -0.329 N 
ATOM     76 HE21 GLN A   4       4.551  -0.560  17.783  0.00  0.00    +0.145 HD
ATOM     77 HE22 GLN A   4       5.919  -1.098  16.869  0.00  0.00    +0.145 HD
ENDBRANCH  72  73
ENDBRANCH  71  72
ENDBRANCH   1  71
TORSDOF 32
ENDMDL
MODEL 6
REMARK VINA RESULT:      -5.4      2.405      6.681
REMARK  Name = VTFQSAVK-mmff94.pdb
REMARK  38 active torsions:
REMARK  status: ('A' for Active; 'I' for Inactive)
REMARK    1  A    between atoms: _1  and  _2
REMARK    2  A    between atoms: _2  and  _3
REMARK    3  A    between atoms: _2  and  _5
REMARK    4  A    between atoms: _5  and  _6
REMARK    5  A    between atoms: _5  and  _7
REMARK    6  A    between atoms: _17  and  _18
REMARK    7  A    between atoms: _18  and  _19
REMARK    8  A    between atoms: _18  and  _21
REMARK    9  A    between atoms: _21  and  _22
REMARK   10  A    between atoms: _21  and  _23
REMARK   11  A    between atoms: _31  and  _32
REMARK   12  A    between atoms: _32  and  _33
REMARK   13  A    between atoms: _32  and  _35
REMARK   14  A    between atoms: _35  and  _36
REMARK   15  A    between atoms: _51  and  _52
REMARK   16  A    between atoms: _52  and  _53
REMARK   17  A    between atoms: _52  and  _55
REMARK   18  A    between atoms: _55  and  _56
REMARK   19  A    between atoms: _56  and  _57
REMARK   20  A    between atoms: _68  and  _69
REMARK   21  A    between atoms: _69  and  _70
REMARK   22  A    between atoms: _69  and  _72
REMARK   23  A    between atoms: _72  and  _73
REMARK   24  A    between atoms: _79  and  _80
REMARK   25  A    between atoms: _80  and  _81
REMARK   26  A    between atoms: _80  and  _83
REMARK   27  A    between atoms: _89  and  _90
REMARK   28  A    between atoms: _90  and  _91
REMARK   29  A    between atoms: _90  and  _93
REMARK   30  A    between atoms: _93  and  _94
REMARK   31  A    between atoms: _93  and  _95
REMARK   32  A    between atoms: _105  and  _106
REMARK   33  A    between atoms: _106  and  _107
REMARK   34  A    between atoms: _106  and  _109
REMARK   35  A    between atoms: _109  and  _110
REMARK   36  A    between atoms: _110  and  _111
REMARK   37  A    between atoms: _111  and  _112
REMARK   38  A    between atoms: _112  and  _113
REMARK                            x       y       z     vdW  Elec       q    Type
REMARK                         _______ _______ _______ _____ _____    ______ ____
ROOT
ATOM      1  CA  GLN A   4       6.088  -3.177  22.501  0.00  0.00    +0.159 C 
ENDROOT
BRANCH   1   4
ATOM      2  C   PHE A   3       5.676  -2.415  24.837  0.00  0.00    +0.234 C 
ATOM      3  O   PHE A   3       6.411  -3.280  25.314  0.00  0.00    -0.274 OA
ATOM      4  N   GLN A   4       5.473  -2.284  23.484  0.00  0.00    -0.302 N 
ATOM      5  H   GLN A   4       4.813  -1.599  23.125  0.00  0.00    +0.150 HD
BRANCH   2   6
ATOM      6  CA  PHE A   3       4.963  -1.363  25.708  0.00  0.00    +0.163 C 
BRANCH   6   8
ATOM      7  C   THR A   2       2.965  -2.298  26.859  0.00  0.00    +0.236 C 
ATOM      8  N   PHE A   3       4.319  -2.072  26.813  0.00  0.00    -0.302 N 
ATOM      9  H   PHE A   3       4.932  -2.493  27.505  0.00  0.00    +0.150 HD
ATOM     10  O   THR A   2       2.190  -1.919  25.980  0.00  0.00    -0.274 OA
BRANCH   7  11
ATOM     11  CA  THR A   2       2.486  -3.117  28.066  0.00  0.00    +0.187 C 
BRANCH  11  14
ATOM     12  C   VAL A   1       3.460  -5.353  27.576  0.00  0.00    +0.231 C 
ATOM     13  O   VAL A   1       2.677  -5.582  26.655  0.00  0.00    -0.274 OA
ATOM     14  N   THR A   2       3.478  -4.173  28.280  0.00  0.00    -0.301 N 
ATOM     15  H   THR A   2       4.185  -4.006  28.986  0.00  0.00    +0.150 HD
BRANCH  12  16
ATOM     16  CA  VAL A   1       4.488  -6.401  28.065  0.00  0.00    +0.140 C 
BRANCH  16  17
ATOM     17  N   VAL A   1       4.917  -7.189  26.888  0.00  0.00    -0.320 NA
ATOM     18  H1  VAL A   1       5.769  -7.691  27.159  0.00  0.00    +0.119 HD
ATOM     19  H2  VAL A   1       5.236  -6.537  26.168  0.00  0.00    +0.119 HD
ENDBRANCH  16  17
BRANCH  16  20
ATOM     20  CB  VAL A   1       5.690  -5.715  28.752  0.00  0.00    +0.009 C 
ATOM     21  CG2 VAL A   1       6.085  -6.453  30.035  0.00  0.00    +0.009 C 
ATOM     22  CG1 VAL A   1       6.911  -5.638  27.826  0.00  0.00    +0.009 C 
ENDBRANCH  16  20
ENDBRANCH  12  16
ENDBRANCH  11  14
BRANCH  11  23
ATOM     23  CB  THR A   2       2.384  -2.198  29.305  0.00  0.00    +0.141 C 
ATOM     24  CG2 THR A   2       3.439  -2.512  30.362  0.00  0.00    +0.040 C 
BRANCH  23  25
ATOM     25  OG1 THR A   2       2.549  -0.828  28.916  0.00  0.00    -0.390 OA
ATOM     26  HG1 THR A   2       2.341  -0.756  27.969  0.00  0.00    +0.210 HD
ENDBRANCH  23  25
ENDBRANCH  11  23
ENDBRANCH   7  11
ENDBRANCH   6   8
BRANCH   6  27
ATOM     27  CB  PHE A   3       6.002  -0.343  26.198  0.00  0.00    +0.067 C 
BRANCH  27  28
ATOM     28  CG  PHE A   3       5.435   0.753  27.069  0.00  0.00    -0.045 A 
ATOM     29  CD2 PHE A   3       5.925   0.949  28.368  0.00  0.00    +0.004 A 
ATOM     30  CE2 PHE A   3       5.413   1.968  29.172  0.00  0.00    +0.000 A 
ATOM     31  CZ  PHE A   3       4.402   2.796  28.691  0.00  0.00    +0.000 A 
ATOM     32  CE1 PHE A   3       3.904   2.608  27.403  0.00  0.00    +0.000 A 
ATOM     33  CD1 PHE A   3       4.420   1.594  26.593  0.00  0.00    +0.004 A 
ENDBRANCH  27  28
ENDBRANCH   6  27
ENDBRANCH   2   6
ENDBRANCH   1   4
BRANCH   1  34
ATOM     34  C   GLN A   4       5.953  -2.470  21.138  0.00  0.00    +0.234 C 
ATOM     35  O   GLN A   4       5.590  -3.069  20.125  0.00  0.00    -0.274 OA
ATOM     36  N   SER A   5       6.305  -1.145  21.118  0.00  0.00    -0.301 N 
ATOM     37  H   SER A   5       6.632  -0.668  21.957  0.00  0.00    +0.150 HD
BRANCH  36  38
ATOM     38  CA  SER A   5       6.406  -0.383  19.871  0.00  0.00    +0.184 C 
BRANCH  38  39
ATOM     39  C   SER A   5       5.895   1.041  20.152  0.00  0.00    +0.236 C 
ATOM     40  N   ALA A   6       6.071   1.493  21.435  0.00  0.00    -0.303 N 
ATOM     41  H   ALA A   6       6.499   0.907  22.147  0.00  0.00    +0.149 HD
ATOM     42  O   SER A   5       5.346   1.715  19.277  0.00  0.00    -0.274 OA
BRANCH  40  43
ATOM     43  CA  ALA A   6       5.732   2.854  21.836  0.00  0.00    +0.156 C 
ATOM     44  CB  ALA A   6       4.699   2.881  22.953  0.00  0.00    +0.038 C 
BRANCH  43  45
ATOM     45  C   ALA A   6       7.027   3.534  22.311  0.00  0.00    +0.234 C 
ATOM     46  O   ALA A   6       7.330   4.675  21.961  0.00  0.00    -0.274 OA
ATOM     47  N   VAL A   7       7.821   2.766  23.126  0.00  0.00    -0.302 N 
ATOM     48  H   VAL A   7       7.532   1.826  23.385  0.00  0.00    +0.150 HD
BRANCH  47  49
ATOM     49  CA  VAL A   7       9.079   3.246  23.702  0.00  0.00    +0.161 C 
BRANCH  49  50
ATOM     50  C   VAL A   7       9.960   1.984  23.858  0.00  0.00    +0.234 C 
ATOM     51  N   LYS A   8       9.291   0.786  23.798  0.00  0.00    -0.304 N 
ATOM     52  H   LYS A   8       8.276   0.767  23.712  0.00  0.00    +0.149 HD
ATOM     53  O   VAL A   7      11.185   2.040  23.987  0.00  0.00    -0.274 OA
BRANCH  51  54
ATOM     54  CA  LYS A   8       9.988  -0.493  23.751  0.00  0.00    +0.136 C 
BRANCH  54  55
ATOM     55  C   LYS A   8      10.018  -0.922  22.292  0.00  0.00    +0.245 C 
ATOM     56  O   LYS A   8       9.349  -0.382  21.413  0.00  0.00    -0.299 OA
ENDBRANCH  54  55
BRANCH  54  57
ATOM     57  CB  LYS A   8       9.286  -1.545  24.619  0.00  0.00    +0.030 C 
BRANCH  57  58
ATOM     58  CG  LYS A   8       9.640  -2.983  24.224  0.00  0.00    +0.007 C 
BRANCH  58  59
ATOM     59  CD  LYS A   8       9.649  -3.909  25.445  0.00  0.00    +0.051 C 
BRANCH  59  60
ATOM     60  CE  LYS A   8       9.372  -5.354  25.051  0.00  0.00    +0.127 C 
BRANCH  60  61
ATOM     61  NZ  LYS A   8       8.298  -5.385  24.030  0.00  0.00    +0.219 N 
ATOM     62  HZ1 LYS A   8       7.520  -4.758  24.276  0.00  0.00    +0.199 HD
ATOM     63  HZ2 LYS A   8       7.905  -6.331  23.932  0.00  0.00    +0.199 HD
ATOM     64  HZ3 LYS A   8       8.643  -5.102  23.102  0.00  0.00    +0.199 HD
ENDBRANCH  60  61
ENDBRANCH  59  60
ENDBRANCH  58  59
ENDBRANCH  57  58
ENDBRANCH  54  57
ENDBRANCH  51  54
ENDBRANCH  49  50
BRANCH  49  65
ATOM     65  CB  VAL A   7       8.859   3.955  25.065  0.00  0.00    +0.012 C 
ATOM     66  CG2 VAL A   7       8.848   5.484  24.939  0.00  0.00    +0.009 C 
ATOM     67  CG1 VAL A   7       7.552   3.523  25.741  0.00  0.00    +0.009 C 
ENDBRANCH  49  65
ENDBRANCH  47  49
ENDBRANCH  43  45
ENDBRANCH  40  43
ENDBRANCH  38  39
BRANCH  38  68
ATOM     68  CB  SER A   5       5.622  -1.037  18.726  0.00  0.00    +0.187 C 
BRANCH  68  69
ATOM     69  OG  SER A   5       5.923  -0.432  17.468  0.00  0.00    -0.393 OA
ATOM     70  H   SER A   5       5.641   0.498  17.531  0.00  0.00    +0.209 HD
ENDBRANCH  68  69
ENDBRANCH  38  68
ENDBRANCH  36  38
ENDBRANCH   1  34
BRANCH   1  71
ATOM     71  CB  GLN A   4       5.383  -4.542  22.496  0.00  0.00    +0.041 C 
BRANCH  71  72
ATOM     72  CG  GLN A   4       4.013  -4.528  23.172  0.00  0.00    +0.098 C 
BRANCH  72  73
ATOM     73  CD  GLN A   4       3.317  -5.872  23.189  0.00  0.00    +0.211 C 
ATOM     74  OE1 GLN A   4       2.223  -6.055  22.662  0.00  0.00    -0.276 OA
ATOM     75  NE2 GLN A   4       3.909  -6.865  23.905  0.00  0.00    -0.329 N 
ATOM     76 HE21 GLN A   4       4.855  -6.820  24.254  0.00  0.00    +0.145 HD
ATOM     77 HE22 GLN A   4       3.455  -7.770  23.889  0.00  0.00    +0.145 HD
ENDBRANCH  72  73
ENDBRANCH  71  72
ENDBRANCH   1  71
TORSDOF 32
ENDMDL
MODEL 7
REMARK VINA RESULT:      -5.4      2.099      5.971
REMARK  Name = VTFQSAVK-mmff94.pdb
REMARK  38 active torsions:
REMARK  status: ('A' for Active; 'I' for Inactive)
REMARK    1  A    between atoms: _1  and  _2
REMARK    2  A    between atoms: _2  and  _3
REMARK    3  A    between atoms: _2  and  _5
REMARK    4  A    between atoms: _5  and  _6
REMARK    5  A    between atoms: _5  and  _7
REMARK    6  A    between atoms: _17  and  _18
REMARK    7  A    between atoms: _18  and  _19
REMARK    8  A    between atoms: _18  and  _21
REMARK    9  A    between atoms: _21  and  _22
REMARK   10  A    between atoms: _21  and  _23
REMARK   11  A    between atoms: _31  and  _32
REMARK   12  A    between atoms: _32  and  _33
REMARK   13  A    between atoms: _32  and  _35
REMARK   14  A    between atoms: _35  and  _36
REMARK   15  A    between atoms: _51  and  _52
REMARK   16  A    between atoms: _52  and  _53
REMARK   17  A    between atoms: _52  and  _55
REMARK   18  A    between atoms: _55  and  _56
REMARK   19  A    between atoms: _56  and  _57
REMARK   20  A    between atoms: _68  and  _69
REMARK   21  A    between atoms: _69  and  _70
REMARK   22  A    between atoms: _69  and  _72
REMARK   23  A    between atoms: _72  and  _73
REMARK   24  A    between atoms: _79  and  _80
REMARK   25  A    between atoms: _80  and  _81
REMARK   26  A    between atoms: _80  and  _83
REMARK   27  A    between atoms: _89  and  _90
REMARK   28  A    between atoms: _90  and  _91
REMARK   29  A    between atoms: _90  and  _93
REMARK   30  A    between atoms: _93  and  _94
REMARK   31  A    between atoms: _93  and  _95
REMARK   32  A    between atoms: _105  and  _106
REMARK   33  A    between atoms: _106  and  _107
REMARK   34  A    between atoms: _106  and  _109
REMARK   35  A    between atoms: _109  and  _110
REMARK   36  A    between atoms: _110  and  _111
REMARK   37  A    between atoms: _111  and  _112
REMARK   38  A    between atoms: _112  and  _113
REMARK                            x       y       z     vdW  Elec       q    Type
REMARK                         _______ _______ _______ _____ _____    ______ ____
ROOT
ATOM      1  CA  GLN A   4       7.515  -1.728  21.169  0.00  0.00    +0.159 C 
ENDROOT
BRANCH   1   4
ATOM      2  C   PHE A   3       6.134  -3.697  21.823  0.00  0.00    +0.234 C 
ATOM      3  O   PHE A   3       5.933  -4.021  20.652  0.00  0.00    -0.274 OA
ATOM      4  N   GLN A   4       6.899  -2.608  22.165  0.00  0.00    -0.302 N 
ATOM      5  H   GLN A   4       6.998  -2.330  23.138  0.00  0.00    +0.150 HD
BRANCH   2   6
ATOM      6  CA  PHE A   3       5.595  -4.514  23.013  0.00  0.00    +0.163 C 
BRANCH   6   8
ATOM      7  C   THR A   2       6.430  -4.462  25.356  0.00  0.00    +0.236 C 
ATOM      8  N   PHE A   3       5.975  -3.809  24.236  0.00  0.00    -0.302 N 
ATOM      9  H   PHE A   3       5.993  -2.795  24.193  0.00  0.00    +0.150 HD
ATOM     10  O   THR A   2       6.549  -5.686  25.419  0.00  0.00    -0.274 OA
BRANCH   7  11
ATOM     11  CA  THR A   2       6.841  -3.546  26.518  0.00  0.00    +0.187 C 
BRANCH  11  14
ATOM     12  C   VAL A   1       5.258  -4.187  28.326  0.00  0.00    +0.231 C 
ATOM     13  O   VAL A   1       4.304  -3.609  27.808  0.00  0.00    -0.274 OA
ATOM     14  N   THR A   2       6.505  -4.256  27.754  0.00  0.00    -0.301 N 
ATOM     15  H   THR A   2       7.241  -4.801  28.188  0.00  0.00    +0.150 HD
BRANCH  12  16
ATOM     16  CA  VAL A   1       5.154  -4.870  29.711  0.00  0.00    +0.140 C 
BRANCH  16  17
ATOM     17  N   VAL A   1       4.329  -4.000  30.579  0.00  0.00    -0.320 NA
ATOM     18  H1  VAL A   1       4.947  -3.638  31.312  0.00  0.00    +0.119 HD
ATOM     19  H2  VAL A   1       3.667  -4.591  31.085  0.00  0.00    +0.119 HD
ENDBRANCH  16  17
BRANCH  16  20
ATOM     20  CB  VAL A   1       4.538  -6.282  29.584  0.00  0.00    +0.009 C 
ATOM     21  CG2 VAL A   1       3.007  -6.216  29.571  0.00  0.00    +0.009 C 
ATOM     22  CG1 VAL A   1       5.016  -7.004  28.318  0.00  0.00    +0.009 C 
ENDBRANCH  16  20
ENDBRANCH  12  16
ENDBRANCH  11  14
BRANCH  11  23
ATOM     23  CB  THR A   2       8.360  -3.264  26.440  0.00  0.00    +0.141 C 
ATOM     24  CG2 THR A   2       9.200  -4.535  26.511  0.00  0.00    +0.040 C 
BRANCH  23  25
ATOM     25  OG1 THR A   2       8.674  -2.599  25.210  0.00  0.00    -0.390 OA
ATOM     26  HG1 THR A   2       7.839  -2.398  24.754  0.00  0.00    +0.210 HD
ENDBRANCH  23  25
ENDBRANCH  11  23
ENDBRANCH   7  11
ENDBRANCH   6   8
BRANCH   6  27
ATOM     27  CB  PHE A   3       4.072  -4.649  22.868  0.00  0.00    +0.067 C 
BRANCH  27  28
ATOM     28  CG  PHE A   3       3.414  -5.468  23.953  0.00  0.00    -0.045 A 
ATOM     29  CD2 PHE A   3       3.625  -6.852  24.021  0.00  0.00    +0.004 A 
ATOM     30  CE2 PHE A   3       3.028  -7.610  25.029  0.00  0.00    +0.000 A 
ATOM     31  CZ  PHE A   3       2.209  -6.997  25.973  0.00  0.00    +0.000 A 
ATOM     32  CE1 PHE A   3       1.988  -5.622  25.912  0.00  0.00    +0.000 A 
ATOM     33  CD1 PHE A   3       2.590  -4.860  24.910  0.00  0.00    +0.004 A 
ENDBRANCH  27  28
ENDBRANCH   6  27
ENDBRANCH   2   6
ENDBRANCH   1   4
BRANCH   1  34
ATOM     34  C   GLN A   4       8.830  -1.225  21.797  0.00  0.00    +0.234 C 
ATOM     35  O   GLN A   4       9.826  -1.943  21.888  0.00  0.00    -0.274 OA
ATOM     36  N   SER A   5       8.802   0.055  22.287  0.00  0.00    -0.301 N 
ATOM     37  H   SER A   5       7.962   0.629  22.233  0.00  0.00    +0.150 HD
BRANCH  36  38
ATOM     38  CA  SER A   5       9.906   0.614  23.073  0.00  0.00    +0.184 C 
BRANCH  38  39
ATOM     39  C   SER A   5       9.410   0.783  24.519  0.00  0.00    +0.236 C 
ATOM     40  N   ALA A   6       8.404   1.699  24.700  0.00  0.00    -0.303 N 
ATOM     41  H   ALA A   6       8.032   2.234  23.919  0.00  0.00    +0.149 HD
ATOM     42  O   SER A   5       9.906   0.146  25.452  0.00  0.00    -0.274 OA
BRANCH  40  43
ATOM     43  CA  ALA A   6       7.758   1.903  25.990  0.00  0.00    +0.156 C 
ATOM     44  CB  ALA A   6       7.479   3.374  26.265  0.00  0.00    +0.038 C 
BRANCH  43  45
ATOM     45  C   ALA A   6       6.435   1.119  25.977  0.00  0.00    +0.234 C 
ATOM     46  O   ALA A   6       6.374  -0.050  25.595  0.00  0.00    -0.274 OA
ATOM     47  N   VAL A   7       5.335   1.827  26.394  0.00  0.00    -0.302 N 
ATOM     48  H   VAL A   7       5.433   2.794  26.696  0.00  0.00    +0.150 HD
BRANCH  47  49
ATOM     49  CA  VAL A   7       3.993   1.249  26.477  0.00  0.00    +0.161 C 
BRANCH  49  50
ATOM     50  C   VAL A   7       3.081   2.229  25.702  0.00  0.00    +0.234 C 
ATOM     51  N   LYS A   8       3.731   3.105  24.867  0.00  0.00    -0.304 N 
ATOM     52  H   LYS A   8       4.748   3.119  24.828  0.00  0.00    +0.149 HD
ATOM     53  O   VAL A   7       1.852   2.204  25.790  0.00  0.00    -0.274 OA
BRANCH  51  54
ATOM     54  CA  LYS A   8       3.016   3.970  23.938  0.00  0.00    +0.136 C 
BRANCH  54  55
ATOM     55  C   LYS A   8       2.918   3.214  22.622  0.00  0.00    +0.245 C 
ATOM     56  O   LYS A   8       3.583   3.497  21.627  0.00  0.00    -0.299 OA
ENDBRANCH  54  55
BRANCH  54  57
ATOM     57  CB  LYS A   8       3.740   5.309  23.750  0.00  0.00    +0.030 C 
BRANCH  57  58
ATOM     58  CG  LYS A   8       5.224   5.249  24.132  0.00  0.00    +0.007 C 
BRANCH  58  59
ATOM     59  CD  LYS A   8       6.114   5.712  22.974  0.00  0.00    +0.051 C 
BRANCH  59  60
ATOM     60  CE  LYS A   8       7.181   4.676  22.642  0.00  0.00    +0.127 C 
BRANCH  60  61
ATOM     61  NZ  LYS A   8       6.564   3.572  21.867  0.00  0.00    +0.219 N 
ATOM     62  HZ1 LYS A   8       5.542   3.552  21.979  0.00  0.00    +0.199 HD
ATOM     63  HZ2 LYS A   8       6.921   2.657  22.177  0.00  0.00    +0.199 HD
ATOM     64  HZ3 LYS A   8       6.765   3.651  20.861  0.00  0.00    +0.199 HD
ENDBRANCH  60  61
ENDBRANCH  59  60
ENDBRANCH  58  59
ENDBRANCH  57  58
ENDBRANCH  54  57
ENDBRANCH  51  54
ENDBRANCH  49  50
BRANCH  49  65
ATOM     65  CB  VAL A   7       3.524   1.082  27.947  0.00  0.00    +0.012 C 
ATOM     66  CG2 VAL A   7       4.167  -0.128  28.637  0.00  0.00    +0.009 C 
ATOM     67  CG1 VAL A   7       3.817   2.325  28.796  0.00  0.00    +0.009 C 
ENDBRANCH  49  65
ENDBRANCH  47  49
ENDBRANCH  43  45
ENDBRANCH  40  43
ENDBRANCH  38  39
BRANCH  38  68
ATOM     68  CB  SER A   5      10.409   1.945  22.500  0.00  0.00    +0.187 C 
BRANCH  68  69
ATOM     69  OG  SER A   5       9.506   2.475  21.529  0.00  0.00    -0.393 OA
ATOM     70  H   SER A   5       9.621   3.442  21.538  0.00  0.00    +0.209 HD
ENDBRANCH  68  69
ENDBRANCH  38  68
ENDBRANCH  36  38
ENDBRANCH   1  34
BRANCH   1  71
ATOM     71  CB  GLN A   4       6.576  -0.561  20.827  0.00  0.00    +0.041 C 
BRANCH  71  72
ATOM     72  CG  GLN A   4       5.875  -0.712  19.478  0.00  0.00    +0.098 C 
BRANCH  72  73
ATOM     73  CD  GLN A   4       5.599   0.599  18.773  0.00  0.00    +0.211 C 
ATOM     74  OE1 GLN A   4       6.189   0.934  17.751  0.00  0.00    -0.276 OA
ATOM     75  NE2 GLN A   4       4.732   1.455  19.378  0.00  0.00    -0.329 N 
ATOM     76 HE21 GLN A   4       4.128   1.196  20.143  0.00  0.00    +0.145 HD
ATOM     77 HE22 GLN A   4       4.530   2.318  18.889  0.00  0.00    +0.145 HD
ENDBRANCH  72  73
ENDBRANCH  71  72
ENDBRANCH   1  71
TORSDOF 32
ENDMDL
MODEL 8
REMARK VINA RESULT:      -5.3      2.024      6.468
REMARK  Name = VTFQSAVK-mmff94.pdb
REMARK  38 active torsions:
REMARK  status: ('A' for Active; 'I' for Inactive)
REMARK    1  A    between atoms: _1  and  _2
REMARK    2  A    between atoms: _2  and  _3
REMARK    3  A    between atoms: _2  and  _5
REMARK    4  A    between atoms: _5  and  _6
REMARK    5  A    between atoms: _5  and  _7
REMARK    6  A    between atoms: _17  and  _18
REMARK    7  A    between atoms: _18  and  _19
REMARK    8  A    between atoms: _18  and  _21
REMARK    9  A    between atoms: _21  and  _22
REMARK   10  A    between atoms: _21  and  _23
REMARK   11  A    between atoms: _31  and  _32
REMARK   12  A    between atoms: _32  and  _33
REMARK   13  A    between atoms: _32  and  _35
REMARK   14  A    between atoms: _35  and  _36
REMARK   15  A    between atoms: _51  and  _52
REMARK   16  A    between atoms: _52  and  _53
REMARK   17  A    between atoms: _52  and  _55
REMARK   18  A    between atoms: _55  and  _56
REMARK   19  A    between atoms: _56  and  _57
REMARK   20  A    between atoms: _68  and  _69
REMARK   21  A    between atoms: _69  and  _70
REMARK   22  A    between atoms: _69  and  _72
REMARK   23  A    between atoms: _72  and  _73
REMARK   24  A    between atoms: _79  and  _80
REMARK   25  A    between atoms: _80  and  _81
REMARK   26  A    between atoms: _80  and  _83
REMARK   27  A    between atoms: _89  and  _90
REMARK   28  A    between atoms: _90  and  _91
REMARK   29  A    between atoms: _90  and  _93
REMARK   30  A    between atoms: _93  and  _94
REMARK   31  A    between atoms: _93  and  _95
REMARK   32  A    between atoms: _105  and  _106
REMARK   33  A    between atoms: _106  and  _107
REMARK   34  A    between atoms: _106  and  _109
REMARK   35  A    between atoms: _109  and  _110
REMARK   36  A    between atoms: _110  and  _111
REMARK   37  A    between atoms: _111  and  _112
REMARK   38  A    between atoms: _112  and  _113
REMARK                            x       y       z     vdW  Elec       q    Type
REMARK                         _______ _______ _______ _____ _____    ______ ____
ROOT
ATOM      1  CA  GLN A   4       7.436  -2.004  21.804  0.00  0.00    +0.159 C 
ENDROOT
BRANCH   1   4
ATOM      2  C   PHE A   3       7.715  -0.656  23.881  0.00  0.00    +0.234 C 
ATOM      3  O   PHE A   3       6.759   0.072  23.610  0.00  0.00    -0.274 OA
ATOM      4  N   GLN A   4       8.104  -1.694  23.070  0.00  0.00    -0.302 N 
ATOM      5  H   GLN A   4       8.934  -2.239  23.291  0.00  0.00    +0.150 HD
BRANCH   2   6
ATOM      6  CA  PHE A   3       8.525  -0.507  25.183  0.00  0.00    +0.163 C 
BRANCH   6   8
ATOM      7  C   THR A   2       7.747  -2.733  25.978  0.00  0.00    +0.236 C 
ATOM      8  N   PHE A   3       8.766  -1.850  25.706  0.00  0.00    -0.302 N 
ATOM      9  H   PHE A   3       9.733  -2.154  25.760  0.00  0.00    +0.150 HD
ATOM     10  O   THR A   2       6.559  -2.460  25.809  0.00  0.00    -0.274 OA
BRANCH   7  11
ATOM     11  CA  THR A   2       8.203  -4.118  26.458  0.00  0.00    +0.187 C 
BRANCH  11  14
ATOM     12  C   VAL A   1       6.325  -5.472  27.370  0.00  0.00    +0.231 C 
ATOM     13  O   VAL A   1       6.509  -5.096  28.526  0.00  0.00    -0.274 OA
ATOM     14  N   THR A   2       7.057  -5.017  26.299  0.00  0.00    -0.301 N 
ATOM     15  H   THR A   2       6.824  -5.306  25.357  0.00  0.00    +0.150 HD
BRANCH  12  16
ATOM     16  CA  VAL A   1       5.264  -6.539  27.008  0.00  0.00    +0.140 C 
BRANCH  16  17
ATOM     17  N   VAL A   1       5.256  -7.548  28.091  0.00  0.00    -0.320 NA
ATOM     18  H1  VAL A   1       4.448  -8.157  27.925  0.00  0.00    +0.119 HD
ATOM     19  H2  VAL A   1       5.029  -7.072  28.967  0.00  0.00    +0.119 HD
ENDBRANCH  16  17
BRANCH  16  20
ATOM     20  CB  VAL A   1       3.871  -5.893  26.831  0.00  0.00    +0.009 C 
ATOM     21  CG2 VAL A   1       3.554  -5.667  25.349  0.00  0.00    +0.009 C 
ATOM     22  CG1 VAL A   1       2.760  -6.747  27.454  0.00  0.00    +0.009 C 
ENDBRANCH  16  20
ENDBRANCH  12  16
ENDBRANCH  11  14
BRANCH  11  23
ATOM     23  CB  THR A   2       9.399  -4.594  25.601  0.00  0.00    +0.141 C 
ATOM     24  CG2 THR A   2       9.510  -6.114  25.536  0.00  0.00    +0.040 C 
BRANCH  23  25
ATOM     25  OG1 THR A   2       9.267  -4.106  24.260  0.00  0.00    -0.390 OA
ATOM     26  HG1 THR A   2       9.259  -4.870  23.660  0.00  0.00    +0.210 HD
ENDBRANCH  23  25
ENDBRANCH  11  23
ENDBRANCH   7  11
ENDBRANCH   6   8
BRANCH   6  27
ATOM     27  CB  PHE A   3       9.832   0.237  24.867  0.00  0.00    +0.067 C 
BRANCH  27  28
ATOM     28  CG  PHE A   3       9.656   1.710  24.580  0.00  0.00    -0.045 A 
ATOM     29  CD2 PHE A   3      10.565   2.383  23.752  0.00  0.00    +0.004 A 
ATOM     30  CE2 PHE A   3      10.399   3.740  23.475  0.00  0.00    +0.000 A 
ATOM     31  CZ  PHE A   3       9.331   4.441  24.028  0.00  0.00    +0.000 A 
ATOM     32  CE1 PHE A   3       8.424   3.783  24.857  0.00  0.00    +0.000 A 
ATOM     33  CD1 PHE A   3       8.582   2.424  25.129  0.00  0.00    +0.004 A 
ENDBRANCH  27  28
ENDBRANCH   6  27
ENDBRANCH   2   6
ENDBRANCH   1   4
BRANCH   1  34
ATOM     34  C   GLN A   4       7.511  -0.720  20.955  0.00  0.00    +0.234 C 
ATOM     35  O   GLN A   4       8.573  -0.307  20.489  0.00  0.00    -0.274 OA
ATOM     36  N   SER A   5       6.328  -0.047  20.790  0.00  0.00    -0.301 N 
ATOM     37  H   SER A   5       5.461  -0.384  21.206  0.00  0.00    +0.150 HD
BRANCH  36  38
ATOM     38  CA  SER A   5       6.265   1.278  20.167  0.00  0.00    +0.184 C 
BRANCH  38  39
ATOM     39  C   SER A   5       6.398   2.326  21.286  0.00  0.00    +0.236 C 
ATOM     40  N   ALA A   6       5.246   2.610  21.975  0.00  0.00    -0.303 N 
ATOM     41  H   ALA A   6       4.366   2.158  21.740  0.00  0.00    +0.149 HD
ATOM     42  O   SER A   5       7.472   2.884  21.524  0.00  0.00    -0.274 OA
BRANCH  40  43
ATOM     43  CA  ALA A   6       5.227   3.504  23.127  0.00  0.00    +0.156 C 
ATOM     44  CB  ALA A   6       4.940   4.945  22.728  0.00  0.00    +0.038 C 
BRANCH  43  45
ATOM     45  C   ALA A   6       4.133   3.004  24.085  0.00  0.00    +0.234 C 
ATOM     46  O   ALA A   6       2.997   2.736  23.694  0.00  0.00    -0.274 OA
ATOM     47  N   VAL A   7       4.513   2.908  25.401  0.00  0.00    -0.302 N 
ATOM     48  H   VAL A   7       5.462   3.146  25.679  0.00  0.00    +0.150 HD
BRANCH  47  49
ATOM     49  CA  VAL A   7       3.622   2.428  26.459  0.00  0.00    +0.161 C 
BRANCH  49  50
ATOM     50  C   VAL A   7       3.728   3.482  27.587  0.00  0.00    +0.234 C 
ATOM     51  N   LYS A   8       4.998   3.934  27.855  0.00  0.00    -0.304 N 
ATOM     52  H   LYS A   8       5.798   3.539  27.365  0.00  0.00    +0.149 HD
ATOM     53  O   VAL A   7       2.741   3.921  28.180  0.00  0.00    -0.274 OA
BRANCH  51  54
ATOM     54  CA  LYS A   8       5.252   5.047  28.759  0.00  0.00    +0.136 C 
BRANCH  54  55
ATOM     55  C   LYS A   8       6.433   5.816  28.186  0.00  0.00    +0.245 C 
ATOM     56  O   LYS A   8       6.720   5.822  26.991  0.00  0.00    -0.299 OA
ENDBRANCH  54  55
BRANCH  54  57
ATOM     57  CB  LYS A   8       5.553   4.556  30.181  0.00  0.00    +0.030 C 
BRANCH  57  58
ATOM     58  CG  LYS A   8       6.849   3.742  30.274  0.00  0.00    +0.007 C 
BRANCH  58  59
ATOM     59  CD  LYS A   8       6.557   2.259  30.524  0.00  0.00    +0.051 C 
BRANCH  59  60
ATOM     60  CE  LYS A   8       7.573   1.365  29.825  0.00  0.00    +0.127 C 
BRANCH  60  61
ATOM     61  NZ  LYS A   8       8.858   1.416  30.563  0.00  0.00    +0.219 N 
ATOM     62  HZ1 LYS A   8       9.112   2.380  30.819  0.00  0.00    +0.199 HD
ATOM     63  HZ2 LYS A   8       9.629   1.041  29.993  0.00  0.00    +0.199 HD
ATOM     64  HZ3 LYS A   8       8.825   0.863  31.430  0.00  0.00    +0.199 HD
ENDBRANCH  60  61
ENDBRANCH  59  60
ENDBRANCH  58  59
ENDBRANCH  57  58
ENDBRANCH  54  57
ENDBRANCH  51  54
ENDBRANCH  49  50
BRANCH  49  65
ATOM     65  CB  VAL A   7       4.030   1.017  26.963  0.00  0.00    +0.012 C 
ATOM     66  CG2 VAL A   7       5.529   0.740  26.790  0.00  0.00    +0.009 C 
ATOM     67  CG1 VAL A   7       3.672   0.801  28.439  0.00  0.00    +0.009 C 
ENDBRANCH  49  65
ENDBRANCH  47  49
ENDBRANCH  43  45
ENDBRANCH  40  43
ENDBRANCH  38  39
BRANCH  38  68
ATOM     68  CB  SER A   5       4.971   1.481  19.369  0.00  0.00    +0.187 C 
BRANCH  68  69
ATOM     69  OG  SER A   5       4.886   0.580  18.265  0.00  0.00    -0.393 OA
ATOM     70  H   SER A   5       4.454  -0.227  18.594  0.00  0.00    +0.209 HD
ENDBRANCH  68  69
ENDBRANCH  38  68
ENDBRANCH  36  38
ENDBRANCH   1  34
BRANCH   1  71
ATOM     71  CB  GLN A   4       5.980  -2.427  22.053  0.00  0.00    +0.041 C 
BRANCH  71  72
ATOM     72  CG  GLN A   4       5.843  -3.684  22.911  0.00  0.00    +0.098 C 
BRANCH  72  73
ATOM     73  CD  GLN A   4       6.510  -4.909  22.321  0.00  0.00    +0.211 C 
ATOM     74  OE1 GLN A   4       7.294  -5.604  22.961  0.00  0.00    -0.276 OA
ATOM     75  NE2 GLN A   4       6.284  -5.162  21.005  0.00  0.00    -0.329 N 
ATOM     76 HE21 GLN A   4       5.564  -4.711  20.460  0.00  0.00    +0.145 HD
ATOM     77 HE22 GLN A   4       6.709  -5.998  20.624  0.00  0.00    +0.145 HD
ENDBRANCH  72  73
ENDBRANCH  71  72
ENDBRANCH   1  71
TORSDOF 32
ENDMDL
MODEL 9
REMARK VINA RESULT:      -5.2      2.072      6.308
REMARK  Name = VTFQSAVK-mmff94.pdb
REMARK  38 active torsions:
REMARK  status: ('A' for Active; 'I' for Inactive)
REMARK    1  A    between atoms: _1  and  _2
REMARK    2  A    between atoms: _2  and  _3
REMARK    3  A    between atoms: _2  and  _5
REMARK    4  A    between atoms: _5  and  _6
REMARK    5  A    between atoms: _5  and  _7
REMARK    6  A    between atoms: _17  and  _18
REMARK    7  A    between atoms: _18  and  _19
REMARK    8  A    between atoms: _18  and  _21
REMARK    9  A    between atoms: _21  and  _22
REMARK   10  A    between atoms: _21  and  _23
REMARK   11  A    between atoms: _31  and  _32
REMARK   12  A    between atoms: _32  and  _33
REMARK   13  A    between atoms: _32  and  _35
REMARK   14  A    between atoms: _35  and  _36
REMARK   15  A    between atoms: _51  and  _52
REMARK   16  A    between atoms: _52  and  _53
REMARK   17  A    between atoms: _52  and  _55
REMARK   18  A    between atoms: _55  and  _56
REMARK   19  A    between atoms: _56  and  _57
REMARK   20  A    between atoms: _68  and  _69
REMARK   21  A    between atoms: _69  and  _70
REMARK   22  A    between atoms: _69  and  _72
REMARK   23  A    between atoms: _72  and  _73
REMARK   24  A    between atoms: _79  and  _80
REMARK   25  A    between atoms: _80  and  _81
REMARK   26  A    between atoms: _80  and  _83
REMARK   27  A    between atoms: _89  and  _90
REMARK   28  A    between atoms: _90  and  _91
REMARK   29  A    between atoms: _90  and  _93
REMARK   30  A    between atoms: _93  and  _94
REMARK   31  A    between atoms: _93  and  _95
REMARK   32  A    between atoms: _105  and  _106
REMARK   33  A    between atoms: _106  and  _107
REMARK   34  A    between atoms: _106  and  _109
REMARK   35  A    between atoms: _109  and  _110
REMARK   36  A    between atoms: _110  and  _111
REMARK   37  A    between atoms: _111  and  _112
REMARK   38  A    between atoms: _112  and  _113
REMARK                            x       y       z     vdW  Elec       q    Type
REMARK                         _______ _______ _______ _____ _____    ______ ____
ROOT
ATOM      1  CA  GLN A   4       8.181  -4.294  25.150  0.00  0.00    +0.159 C 
ENDROOT
BRANCH   1   4
ATOM      2  C   PHE A   3       7.184  -5.359  27.170  0.00  0.00    +0.234 C 
ATOM      3  O   PHE A   3       8.143  -6.117  27.318  0.00  0.00    -0.274 OA
ATOM      4  N   GLN A   4       7.125  -4.435  26.155  0.00  0.00    -0.302 N 
ATOM      5  H   GLN A   4       6.293  -3.865  26.023  0.00  0.00    +0.150 HD
BRANCH   2   6
ATOM      6  CA  PHE A   3       5.989  -5.336  28.143  0.00  0.00    +0.163 C 
BRANCH   6   8
ATOM      7  C   THR A   2       4.263  -3.612  28.632  0.00  0.00    +0.236 C 
ATOM      8  N   PHE A   3       5.130  -4.219  27.755  0.00  0.00    -0.302 N 
ATOM      9  H   PHE A   3       5.276  -3.829  26.829  0.00  0.00    +0.150 HD
ATOM     10  O   THR A   2       4.139  -3.963  29.805  0.00  0.00    -0.274 OA
BRANCH   7  11
ATOM     11  CA  THR A   2       3.494  -2.414  28.057  0.00  0.00    +0.187 C 
BRANCH  11  14
ATOM     12  C   VAL A   1       3.173  -0.552  29.675  0.00  0.00    +0.231 C 
ATOM     13  O   VAL A   1       2.054  -0.933  30.017  0.00  0.00    -0.274 OA
ATOM     14  N   THR A   2       3.963  -1.227  28.776  0.00  0.00    -0.301 N 
ATOM     15  H   THR A   2       4.904  -0.908  28.577  0.00  0.00    +0.150 HD
BRANCH  12  16
ATOM     16  CA  VAL A   1       3.790   0.766  30.200  0.00  0.00    +0.140 C 
BRANCH  16  17
ATOM     17  N   VAL A   1       5.222   0.771  29.827  0.00  0.00    -0.320 NA
ATOM     18  H1  VAL A   1       5.633  -0.086  30.211  0.00  0.00    +0.119 HD
ATOM     19  H2  VAL A   1       5.684   1.520  30.347  0.00  0.00    +0.119 HD
ENDBRANCH  16  17
BRANCH  16  20
ATOM     20  CB  VAL A   1       3.052   1.992  29.615  0.00  0.00    +0.009 C 
ATOM     21  CG2 VAL A   1       3.675   3.300  30.115  0.00  0.00    +0.009 C 
ATOM     22  CG1 VAL A   1       3.065   1.989  28.081  0.00  0.00    +0.009 C 
ENDBRANCH  16  20
ENDBRANCH  12  16
ENDBRANCH  11  14
BRANCH  11  23
ATOM     23  CB  THR A   2       3.786  -2.292  26.543  0.00  0.00    +0.141 C 
ATOM     24  CG2 THR A   2       2.790  -3.067  25.686  0.00  0.00    +0.040 C 
BRANCH  23  25
ATOM     25  OG1 THR A   2       3.733  -0.917  26.142  0.00  0.00    -0.390 OA
ATOM     26  HG1 THR A   2       2.877  -0.762  25.709  0.00  0.00    +0.210 HD
ENDBRANCH  23  25
ENDBRANCH  11  23
ENDBRANCH   7  11
ENDBRANCH   6   8
BRANCH   6  27
ATOM     27  CB  PHE A   3       5.261  -6.686  28.060  0.00  0.00    +0.067 C 
BRANCH  27  28
ATOM     28  CG  PHE A   3       4.222  -6.767  26.967  0.00  0.00    -0.045 A 
ATOM     29  CD2 PHE A   3       4.612  -6.895  25.627  0.00  0.00    +0.004 A 
ATOM     30  CE2 PHE A   3       3.654  -6.982  24.616  0.00  0.00    +0.000 A 
ATOM     31  CZ  PHE A   3       2.299  -6.934  24.931  0.00  0.00    +0.000 A 
ATOM     32  CE1 PHE A   3       1.899  -6.803  26.259  0.00  0.00    +0.000 A 
ATOM     33  CD1 PHE A   3       2.855  -6.723  27.274  0.00  0.00    +0.004 A 
ENDBRANCH  27  28
ENDBRANCH   6  27
ENDBRANCH   2   6
ENDBRANCH   1   4
BRANCH   1  34
ATOM     34  C   GLN A   4       8.719  -2.857  25.295  0.00  0.00    +0.234 C 
ATOM     35  O   GLN A   4       9.656  -2.439  24.615  0.00  0.00    -0.274 OA
ATOM     36  N   SER A   5       8.118  -2.092  26.261  0.00  0.00    -0.301 N 
ATOM     37  H   SER A   5       7.363  -2.459  26.839  0.00  0.00    +0.150 HD
BRANCH  36  38
ATOM     38  CA  SER A   5       8.632  -0.775  26.646  0.00  0.00    +0.184 C 
BRANCH  38  39
ATOM     39  C   SER A   5       7.425   0.115  26.990  0.00  0.00    +0.236 C 
ATOM     40  N   ALA A   6       7.615   1.464  26.825  0.00  0.00    -0.303 N 
ATOM     41  H   ALA A   6       8.506   1.836  26.508  0.00  0.00    +0.149 HD
ATOM     42  O   SER A   5       6.367  -0.363  27.406  0.00  0.00    -0.274 OA
BRANCH  40  43
ATOM     43  CA  ALA A   6       6.539   2.431  27.011  0.00  0.00    +0.156 C 
ATOM     44  CB  ALA A   6       6.925   3.535  27.986  0.00  0.00    +0.038 C 
BRANCH  43  45
ATOM     45  C   ALA A   6       6.220   3.042  25.637  0.00  0.00    +0.234 C 
ATOM     46  O   ALA A   6       5.113   3.516  25.376  0.00  0.00    -0.274 OA
ATOM     47  N   VAL A   7       7.246   2.993  24.726  0.00  0.00    -0.302 N 
ATOM     48  H   VAL A   7       8.141   2.586  24.985  0.00  0.00    +0.150 HD
BRANCH  47  49
ATOM     49  CA  VAL A   7       7.144   3.546  23.374  0.00  0.00    +0.161 C 
BRANCH  49  50
ATOM     50  C   VAL A   7       6.809   2.338  22.467  0.00  0.00    +0.234 C 
ATOM     51  N   LYS A   8       7.890   1.698  21.912  0.00  0.00    -0.304 N 
ATOM     52  H   LYS A   8       8.832   2.056  22.063  0.00  0.00    +0.149 HD
ATOM     53  O   VAL A   7       5.655   1.946  22.283  0.00  0.00    -0.274 OA
BRANCH  51  54
ATOM     54  CA  LYS A   8       7.761   0.446  21.180  0.00  0.00    +0.136 C 
BRANCH  54  55
ATOM     55  C   LYS A   8       9.041  -0.340  21.428  0.00  0.00    +0.245 C 
ATOM     56  O   LYS A   8       9.066  -1.559  21.586  0.00  0.00    -0.299 OA
ENDBRANCH  54  55
BRANCH  54  57
ATOM     57  CB  LYS A   8       7.549   0.692  19.681  0.00  0.00    +0.030 C 
BRANCH  57  58
ATOM     58  CG  LYS A   8       6.679  -0.379  19.013  0.00  0.00    +0.007 C 
BRANCH  58  59
ATOM     59  CD  LYS A   8       5.514   0.252  18.244  0.00  0.00    +0.051 C 
BRANCH  59  60
ATOM     60  CE  LYS A   8       5.267   1.689  18.687  0.00  0.00    +0.127 C 
BRANCH  60  61
ATOM     61  NZ  LYS A   8       4.009   1.748  19.471  0.00  0.00    +0.219 N 
ATOM     62  HZ1 LYS A   8       4.179   1.598  20.474  0.00  0.00    +0.199 HD
ATOM     63  HZ2 LYS A   8       3.346   1.023  19.164  0.00  0.00    +0.199 HD
ATOM     64  HZ3 LYS A   8       3.535   2.656  19.368  0.00  0.00    +0.199 HD
ENDBRANCH  60  61
ENDBRANCH  59  60
ENDBRANCH  58  59
ENDBRANCH  57  58
ENDBRANCH  54  57
ENDBRANCH  51  54
ENDBRANCH  49  50
BRANCH  49  65
ATOM     65  CB  VAL A   7       8.461   4.238  22.931  0.00  0.00    +0.012 C 
ATOM     66  CG2 VAL A   7       8.320   5.762  22.826  0.00  0.00    +0.009 C 
ATOM     67  CG1 VAL A   7       9.626   3.932  23.881  0.00  0.00    +0.009 C 
ENDBRANCH  49  65
ENDBRANCH  47  49
ENDBRANCH  43  45
ENDBRANCH  40  43
ENDBRANCH  38  39
BRANCH  38  68
ATOM     68  CB  SER A   5       9.490  -0.142  25.543  0.00  0.00    +0.187 C 
BRANCH  68  69
ATOM     69  OG  SER A   5       8.685   0.386  24.488  0.00  0.00    -0.393 OA
ATOM     70  H   SER A   5       8.978   1.304  24.345  0.00  0.00    +0.209 HD
ENDBRANCH  68  69
ENDBRANCH  38  68
ENDBRANCH  36  38
ENDBRANCH   1  34
BRANCH   1  71
ATOM     71  CB  GLN A   4       7.621  -4.542  23.741  0.00  0.00    +0.041 C 
BRANCH  71  72
ATOM     72  CG  GLN A   4       6.154  -4.142  23.584  0.00  0.00    +0.098 C 
BRANCH  72  73
ATOM     73  CD  GLN A   4       5.792  -3.652  22.199  0.00  0.00    +0.211 C 
ATOM     74  OE1 GLN A   4       5.518  -4.418  21.280  0.00  0.00    -0.276 OA
ATOM     75  NE2 GLN A   4       5.879  -2.314  21.974  0.00  0.00    -0.329 N 
ATOM     76 HE21 GLN A   4       5.976  -1.626  22.706  0.00  0.00    +0.145 HD
ATOM     77 HE22 GLN A   4       5.608  -1.989  21.055  0.00  0.00    +0.145 HD
ENDBRANCH  72  73
ENDBRANCH  71  72
ENDBRANCH   1  71
TORSDOF 32
ENDMDL
MODEL 10
REMARK VINA RESULT:      -5.2      2.111      8.064
REMARK  Name = VTFQSAVK-mmff94.pdb
REMARK  38 active torsions:
REMARK  status: ('A' for Active; 'I' for Inactive)
REMARK    1  A    between atoms: _1  and  _2
REMARK    2  A    between atoms: _2  and  _3
REMARK    3  A    between atoms: _2  and  _5
REMARK    4  A    between atoms: _5  and  _6
REMARK    5  A    between atoms: _5  and  _7
REMARK    6  A    between atoms: _17  and  _18
REMARK    7  A    between atoms: _18  and  _19
REMARK    8  A    between atoms: _18  and  _21
REMARK    9  A    between atoms: _21  and  _22
REMARK   10  A    between atoms: _21  and  _23
REMARK   11  A    between atoms: _31  and  _32
REMARK   12  A    between atoms: _32  and  _33
REMARK   13  A    between atoms: _32  and  _35
REMARK   14  A    between atoms: _35  and  _36
REMARK   15  A    between atoms: _51  and  _52
REMARK   16  A    between atoms: _52  and  _53
REMARK   17  A    between atoms: _52  and  _55
REMARK   18  A    between atoms: _55  and  _56
REMARK   19  A    between atoms: _56  and  _57
REMARK   20  A    between atoms: _68  and  _69
REMARK   21  A    between atoms: _69  and  _70
REMARK   22  A    between atoms: _69  and  _72
REMARK   23  A    between atoms: _72  and  _73
REMARK   24  A    between atoms: _79  and  _80
REMARK   25  A    between atoms: _80  and  _81
REMARK   26  A    between atoms: _80  and  _83
REMARK   27  A    between atoms: _89  and  _90
REMARK   28  A    between atoms: _90  and  _91
REMARK   29  A    between atoms: _90  and  _93
REMARK   30  A    between atoms: _93  and  _94
REMARK   31  A    between atoms: _93  and  _95
REMARK   32  A    between atoms: _105  and  _106
REMARK   33  A    between atoms: _106  and  _107
REMARK   34  A    between atoms: _106  and  _109
REMARK   35  A    between atoms: _109  and  _110
REMARK   36  A    between atoms: _110  and  _111
REMARK   37  A    between atoms: _111  and  _112
REMARK   38  A    between atoms: _112  and  _113
REMARK                            x       y       z     vdW  Elec       q    Type
REMARK                         _______ _______ _______ _____ _____    ______ ____
ROOT
ATOM      1  CA  GLN A   4       3.169  -2.608  26.750  0.00  0.00    +0.159 C 
ENDROOT
BRANCH   1   4
ATOM      2  C   PHE A   3       3.946  -0.240  26.808  0.00  0.00    +0.234 C 
ATOM      3  O   PHE A   3       2.799   0.197  26.908  0.00  0.00    -0.274 OA
ATOM      4  N   GLN A   4       4.218  -1.585  26.738  0.00  0.00    -0.302 N 
ATOM      5  H   GLN A   4       5.170  -1.914  26.595  0.00  0.00    +0.150 HD
BRANCH   2   6
ATOM      6  CA  PHE A   3       5.184   0.676  26.809  0.00  0.00    +0.163 C 
BRANCH   6   8
ATOM      7  C   THR A   2       6.108   1.839  24.813  0.00  0.00    +0.236 C 
ATOM      8  N   PHE A   3       5.063   1.580  25.666  0.00  0.00    -0.302 N 
ATOM      9  H   PHE A   3       4.133   1.931  25.458  0.00  0.00    +0.150 HD
ATOM     10  O   THR A   2       7.225   1.338  24.946  0.00  0.00    -0.274 OA
BRANCH   7  11
ATOM     11  CA  THR A   2       5.768   2.763  23.634  0.00  0.00    +0.187 C 
BRANCH  11  14
ATOM     12  C   VAL A   1       6.242   2.147  21.271  0.00  0.00    +0.231 C 
ATOM     13  O   VAL A   1       7.074   3.039  21.120  0.00  0.00    -0.274 OA
ATOM     14  N   THR A   2       5.598   1.903  22.461  0.00  0.00    -0.301 N 
ATOM     15  H   THR A   2       4.969   1.114  22.553  0.00  0.00    +0.150 HD
BRANCH  12  16
ATOM     16  CA  VAL A   1       5.803   1.224  20.109  0.00  0.00    +0.140 C 
BRANCH  16  17
ATOM     17  N   VAL A   1       4.526   1.750  19.577  0.00  0.00    -0.320 NA
ATOM     18  H1  VAL A   1       4.016   0.953  19.182  0.00  0.00    +0.119 HD
ATOM     19  H2  VAL A   1       4.736   2.335  18.765  0.00  0.00    +0.119 HD
ENDBRANCH  16  17
BRANCH  16  20
ATOM     20  CB  VAL A   1       6.888   1.168  19.010  0.00  0.00    +0.009 C 
ATOM     21  CG2 VAL A   1       7.719  -0.115  19.122  0.00  0.00    +0.009 C 
ATOM     22  CG1 VAL A   1       6.284   1.248  17.603  0.00  0.00    +0.009 C 
ENDBRANCH  16  20
ENDBRANCH  12  16
ENDBRANCH  11  14
BRANCH  11  23
ATOM     23  CB  THR A   2       4.465   3.535  23.944  0.00  0.00    +0.141 C 
ATOM     24  CG2 THR A   2       4.517   4.989  23.486  0.00  0.00    +0.040 C 
BRANCH  23  25
ATOM     25  OG1 THR A   2       3.354   2.909  23.288  0.00  0.00    -0.390 OA
ATOM     26  HG1 THR A   2       3.535   2.897  22.334  0.00  0.00    +0.210 HD
ENDBRANCH  23  25
ENDBRANCH  11  23
ENDBRANCH   7  11
ENDBRANCH   6   8
BRANCH   6  27
ATOM     27  CB  PHE A   3       5.236   1.431  28.146  0.00  0.00    +0.067 C 
BRANCH  27  28
ATOM     28  CG  PHE A   3       5.392   2.928  28.009  0.00  0.00    -0.045 A 
ATOM     29  CD2 PHE A   3       4.262   3.747  27.875  0.00  0.00    +0.004 A 
ATOM     30  CE2 PHE A   3       4.402   5.131  27.761  0.00  0.00    +0.000 A 
ATOM     31  CZ  PHE A   3       5.668   5.709  27.772  0.00  0.00    +0.000 A 
ATOM     32  CE1 PHE A   3       6.798   4.904  27.901  0.00  0.00    +0.000 A 
ATOM     33  CD1 PHE A   3       6.662   3.520  28.023  0.00  0.00    +0.004 A 
ENDBRANCH  27  28
ENDBRANCH   6  27
ENDBRANCH   2   6
ENDBRANCH   1   4
BRANCH   1  34
ATOM     34  C   GLN A   4       3.699  -3.754  27.633  0.00  0.00    +0.234 C 
ATOM     35  O   GLN A   4       3.268  -3.958  28.767  0.00  0.00    -0.274 OA
ATOM     36  N   SER A   5       4.712  -4.503  27.090  0.00  0.00    -0.301 N 
ATOM     37  H   SER A   5       5.081  -4.306  26.161  0.00  0.00    +0.150 HD
BRANCH  36  38
ATOM     38  CA  SER A   5       5.444  -5.506  27.867  0.00  0.00    +0.184 C 
BRANCH  38  39
ATOM     39  C   SER A   5       6.899  -5.513  27.367  0.00  0.00    +0.236 C 
ATOM     40  N   ALA A   6       7.121  -4.869  26.176  0.00  0.00    -0.303 N 
ATOM     41  H   ALA A   6       6.360  -4.433  25.662  0.00  0.00    +0.149 HD
ATOM     42  O   SER A   5       7.795  -6.082  27.995  0.00  0.00    -0.274 OA
BRANCH  40  43
ATOM     43  CA  ALA A   6       8.458  -4.700  25.619  0.00  0.00    +0.156 C 
ATOM     44  CB  ALA A   6       9.289  -5.971  25.730  0.00  0.00    +0.038 C 
BRANCH  43  45
ATOM     45  C   ALA A   6       8.300  -4.313  24.139  0.00  0.00    +0.234 C 
ATOM     46  O   ALA A   6       8.137  -5.159  23.259  0.00  0.00    -0.274 OA
ATOM     47  N   VAL A   7       8.381  -2.968  23.878  0.00  0.00    -0.302 N 
ATOM     48  H   VAL A   7       8.522  -2.306  24.638  0.00  0.00    +0.150 HD
BRANCH  47  49
ATOM     49  CA  VAL A   7       8.229  -2.401  22.537  0.00  0.00    +0.161 C 
BRANCH  49  50
ATOM     50  C   VAL A   7       9.394  -1.393  22.389  0.00  0.00    +0.234 C 
ATOM     51  N   LYS A   8       9.220  -0.192  23.033  0.00  0.00    -0.304 N 
ATOM     52  H   LYS A   8       8.348   0.009  23.518  0.00  0.00    +0.149 HD
ATOM     53  O   VAL A   7      10.427  -1.658  21.772  0.00  0.00    -0.274 OA
BRANCH  51  54
ATOM     54  CA  LYS A   8      10.287   0.794  23.141  0.00  0.00    +0.136 C 
BRANCH  54  55
ATOM     55  C   LYS A   8      10.626   0.913  24.620  0.00  0.00    +0.245 C 
ATOM     56  O   LYS A   8      10.374   0.036  25.444  0.00  0.00    -0.299 OA
ENDBRANCH  54  55
BRANCH  54  57
ATOM     57  CB  LYS A   8       9.857   2.149  22.565  0.00  0.00    +0.030 C 
BRANCH  57  58
ATOM     58  CG  LYS A   8      10.316   3.337  23.419  0.00  0.00    +0.007 C 
BRANCH  58  59
ATOM     59  CD  LYS A   8       9.119   4.106  23.989  0.00  0.00    +0.051 C 
BRANCH  59  60
ATOM     60  CE  LYS A   8       9.111   5.555  23.517  0.00  0.00    +0.127 C 
BRANCH  60  61
ATOM     61  NZ  LYS A   8       8.194   5.686  22.360  0.00  0.00    +0.219 N 
ATOM     62  HZ1 LYS A   8       8.684   6.025  21.521  0.00  0.00    +0.199 HD
ATOM     63  HZ2 LYS A   8       7.438   6.356  22.560  0.00  0.00    +0.199 HD
ATOM     64  HZ3 LYS A   8       7.749   4.790  22.119  0.00  0.00    +0.199 HD
ENDBRANCH  60  61
ENDBRANCH  59  60
ENDBRANCH  58  59
ENDBRANCH  57  58
ENDBRANCH  54  57
ENDBRANCH  51  54
ENDBRANCH  49  50
BRANCH  49  65
ATOM     65  CB  VAL A   7       6.853  -1.707  22.354  0.00  0.00    +0.012 C 
ATOM     66  CG2 VAL A   7       6.000  -2.367  21.262  0.00  0.00    +0.009 C 
ATOM     67  CG1 VAL A   7       6.034  -1.688  23.651  0.00  0.00    +0.009 C 
ENDBRANCH  49  65
ENDBRANCH  47  49
ENDBRANCH  43  45
ENDBRANCH  40  43
ENDBRANCH  38  39
BRANCH  38  68
ATOM     68  CB  SER A   5       4.813  -6.900  27.755  0.00  0.00    +0.187 C 
BRANCH  68  69
ATOM     69  OG  SER A   5       5.558  -7.876  28.484  0.00  0.00    -0.393 OA
ATOM     70  H   SER A   5       6.421  -7.474  28.687  0.00  0.00    +0.209 HD
ENDBRANCH  68  69
ENDBRANCH  38  68
ENDBRANCH  36  38
ENDBRANCH   1  34
BRANCH   1  71
ATOM     71  CB  GLN A   4       2.873  -3.092  25.322  0.00  0.00    +0.041 C 
BRANCH  71  72
ATOM     72  CG  GLN A   4       1.706  -4.075  25.236  0.00  0.00    +0.098 C 
BRANCH  72  73
ATOM     73  CD  GLN A   4       2.068  -5.411  24.624  0.00  0.00    +0.211 C 
ATOM     74  OE1 GLN A   4       2.257  -6.417  25.302  0.00  0.00    -0.276 OA
ATOM     75  NE2 GLN A   4       2.278  -5.439  23.281  0.00  0.00    -0.329 N 
ATOM     76 HE21 GLN A   4       2.023  -4.688  22.656  0.00  0.00    +0.145 HD
ATOM     77 HE22 GLN A   4       2.491  -6.340  22.873  0.00  0.00    +0.145 HD
ENDBRANCH  72  73
ENDBRANCH  71  72
ENDBRANCH   1  71
TORSDOF 32
ENDMDL
MODEL 11
REMARK VINA RESULT:      -5.1      2.394      5.168
REMARK  Name = VTFQSAVK-mmff94.pdb
REMARK  38 active torsions:
REMARK  status: ('A' for Active; 'I' for Inactive)
REMARK    1  A    between atoms: _1  and  _2
REMARK    2  A    between atoms: _2  and  _3
REMARK    3  A    between atoms: _2  and  _5
REMARK    4  A    between atoms: _5  and  _6
REMARK    5  A    between atoms: _5  and  _7
REMARK    6  A    between atoms: _17  and  _18
REMARK    7  A    between atoms: _18  and  _19
REMARK    8  A    between atoms: _18  and  _21
REMARK    9  A    between atoms: _21  and  _22
REMARK   10  A    between atoms: _21  and  _23
REMARK   11  A    between atoms: _31  and  _32
REMARK   12  A    between atoms: _32  and  _33
REMARK   13  A    between atoms: _32  and  _35
REMARK   14  A    between atoms: _35  and  _36
REMARK   15  A    between atoms: _51  and  _52
REMARK   16  A    between atoms: _52  and  _53
REMARK   17  A    between atoms: _52  and  _55
REMARK   18  A    between atoms: _55  and  _56
REMARK   19  A    between atoms: _56  and  _57
REMARK   20  A    between atoms: _68  and  _69
REMARK   21  A    between atoms: _69  and  _70
REMARK   22  A    between atoms: _69  and  _72
REMARK   23  A    between atoms: _72  and  _73
REMARK   24  A    between atoms: _79  and  _80
REMARK   25  A    between atoms: _80  and  _81
REMARK   26  A    between atoms: _80  and  _83
REMARK   27  A    between atoms: _89  and  _90
REMARK   28  A    between atoms: _90  and  _91
REMARK   29  A    between atoms: _90  and  _93
REMARK   30  A    between atoms: _93  and  _94
REMARK   31  A    between atoms: _93  and  _95
REMARK   32  A    between atoms: _105  and  _106
REMARK   33  A    between atoms: _106  and  _107
REMARK   34  A    between atoms: _106  and  _109
REMARK   35  A    between atoms: _109  and  _110
REMARK   36  A    between atoms: _110  and  _111
REMARK   37  A    between atoms: _111  and  _112
REMARK   38  A    between atoms: _112  and  _113
REMARK                            x       y       z     vdW  Elec       q    Type
REMARK                         _______ _______ _______ _____ _____    ______ ____
ROOT
ATOM      1  CA  GLN A   4       4.228   1.463  27.125  0.00  0.00    +0.159 C 
ENDROOT
BRANCH   1   4
ATOM      2  C   PHE A   3       3.052  -0.731  27.263  0.00  0.00    +0.234 C 
ATOM      3  O   PHE A   3       1.978  -0.246  26.909  0.00  0.00    -0.274 OA
ATOM      4  N   GLN A   4       4.196   0.021  27.382  0.00  0.00    -0.302 N 
ATOM      5  H   GLN A   4       5.055  -0.396  27.735  0.00  0.00    +0.150 HD
BRANCH   2   6
ATOM      6  CA  PHE A   3       3.228  -2.234  27.550  0.00  0.00    +0.163 C 
BRANCH   6   8
ATOM      7  C   THR A   2       2.702  -4.103  25.993  0.00  0.00    +0.236 C 
ATOM      8  N   PHE A   3       3.341  -2.916  26.261  0.00  0.00    -0.302 N 
ATOM      9  H   PHE A   3       3.828  -2.419  25.522  0.00  0.00    +0.150 HD
ATOM     10  O   THR A   2       1.994  -4.685  26.814  0.00  0.00    -0.274 OA
BRANCH   7  11
ATOM     11  CA  THR A   2       2.889  -4.630  24.563  0.00  0.00    +0.187 C 
BRANCH  11  14
ATOM     12  C   VAL A   1       5.325  -4.310  24.175  0.00  0.00    +0.231 C 
ATOM     13  O   VAL A   1       5.228  -3.090  24.051  0.00  0.00    -0.274 OA
ATOM     14  N   THR A   2       4.263  -5.129  24.473  0.00  0.00    -0.301 N 
ATOM     15  H   THR A   2       4.405  -6.120  24.632  0.00  0.00    +0.150 HD
BRANCH  12  16
ATOM     16  CA  VAL A   1       6.665  -5.056  23.965  0.00  0.00    +0.140 C 
BRANCH  16  17
ATOM     17  N   VAL A   1       6.932  -5.096  22.510  0.00  0.00    -0.320 NA
ATOM     18  H1  VAL A   1       7.161  -6.067  22.274  0.00  0.00    +0.119 HD
ATOM     19  H2  VAL A   1       7.802  -4.589  22.332  0.00  0.00    +0.119 HD
ENDBRANCH  16  17
BRANCH  16  20
ATOM     20  CB  VAL A   1       7.812  -4.355  24.728  0.00  0.00    +0.009 C 
ATOM     21  CG2 VAL A   1       8.777  -5.380  25.333  0.00  0.00    +0.009 C 
ATOM     22  CG1 VAL A   1       8.601  -3.400  23.824  0.00  0.00    +0.009 C 
ENDBRANCH  16  20
ENDBRANCH  12  16
ENDBRANCH  11  14
BRANCH  11  23
ATOM     23  CB  THR A   2       1.873  -5.763  24.294  0.00  0.00    +0.141 C 
ATOM     24  CG2 THR A   2       1.794  -6.148  22.820  0.00  0.00    +0.040 C 
BRANCH  23  25
ATOM     25  OG1 THR A   2       2.236  -6.936  25.035  0.00  0.00    -0.390 OA
ATOM     26  HG1 THR A   2       2.744  -7.519  24.446  0.00  0.00    +0.210 HD
ENDBRANCH  23  25
ENDBRANCH  11  23
ENDBRANCH   7  11
ENDBRANCH   6   8
BRANCH   6  27
ATOM     27  CB  PHE A   3       4.478  -2.426  28.421  0.00  0.00    +0.067 C 
BRANCH  27  28
ATOM     28  CG  PHE A   3       4.884  -3.868  28.619  0.00  0.00    -0.045 A 
ATOM     29  CD2 PHE A   3       5.932  -4.417  27.868  0.00  0.00    +0.004 A 
ATOM     30  CE2 PHE A   3       6.317  -5.745  28.057  0.00  0.00    +0.000 A 
ATOM     31  CZ  PHE A   3       5.656  -6.539  28.990  0.00  0.00    +0.000 A 
ATOM     32  CE1 PHE A   3       4.610  -6.004  29.740  0.00  0.00    +0.000 A 
ATOM     33  CD1 PHE A   3       4.227  -4.674  29.559  0.00  0.00    +0.004 A 
ENDBRANCH  27  28
ENDBRANCH   6  27
ENDBRANCH   2   6
ENDBRANCH   1   4
BRANCH   1  34
ATOM     34  C   GLN A   4       4.529   1.623  25.622  0.00  0.00    +0.234 C 
ATOM     35  O   GLN A   4       5.192   0.795  24.997  0.00  0.00    -0.274 OA
ATOM     36  N   SER A   5       4.049   2.767  25.039  0.00  0.00    -0.301 N 
ATOM     37  H   SER A   5       3.526   3.459  25.574  0.00  0.00    +0.150 HD
BRANCH  36  38
ATOM     38  CA  SER A   5       4.404   3.154  23.671  0.00  0.00    +0.184 C 
BRANCH  38  39
ATOM     39  C   SER A   5       5.618   4.094  23.752  0.00  0.00    +0.236 C 
ATOM     40  N   ALA A   6       6.833   3.482  23.933  0.00  0.00    -0.303 N 
ATOM     41  H   ALA A   6       6.906   2.471  24.022  0.00  0.00    +0.149 HD
ATOM     42  O   SER A   5       5.495   5.319  23.676  0.00  0.00    -0.274 OA
BRANCH  40  43
ATOM     43  CA  ALA A   6       8.088   4.223  23.930  0.00  0.00    +0.156 C 
ATOM     44  CB  ALA A   6       8.394   4.837  25.289  0.00  0.00    +0.038 C 
BRANCH  43  45
ATOM     45  C   ALA A   6       9.207   3.243  23.541  0.00  0.00    +0.234 C 
ATOM     46  O   ALA A   6      10.375   3.608  23.406  0.00  0.00    -0.274 OA
ATOM     47  N   VAL A   7       8.799   1.948  23.334  0.00  0.00    -0.302 N 
ATOM     48  H   VAL A   7       7.821   1.694  23.453  0.00  0.00    +0.150 HD
BRANCH  47  49
ATOM     49  CA  VAL A   7       9.719   0.865  22.984  0.00  0.00    +0.161 C 
BRANCH  49  50
ATOM     50  C   VAL A   7       8.938  -0.024  21.987  0.00  0.00    +0.234 C 
ATOM     51  N   LYS A   8       7.598   0.259  21.869  0.00  0.00    -0.304 N 
ATOM     52  H   LYS A   8       7.171   0.974  22.455  0.00  0.00    +0.149 HD
ATOM     53  O   VAL A   7       9.481  -0.899  21.310  0.00  0.00    -0.274 OA
BRANCH  51  54
ATOM     54  CA  LYS A   8       6.759  -0.361  20.852  0.00  0.00    +0.136 C 
BRANCH  54  55
ATOM     55  C   LYS A   8       6.667  -1.839  21.202  0.00  0.00    +0.245 C 
ATOM     56  O   LYS A   8       5.688  -2.536  20.941  0.00  0.00    -0.299 OA
ENDBRANCH  54  55
BRANCH  54  57
ATOM     57  CB  LYS A   8       7.343  -0.163  19.447  0.00  0.00    +0.030 C 
BRANCH  57  58
ATOM     58  CG  LYS A   8       6.271  -0.120  18.352  0.00  0.00    +0.007 C 
BRANCH  58  59
ATOM     59  CD  LYS A   8       5.726   1.299  18.164  0.00  0.00    +0.051 C 
BRANCH  59  60
ATOM     60  CE  LYS A   8       4.467   1.527  18.990  0.00  0.00    +0.127 C 
BRANCH  60  61
ATOM     61  NZ  LYS A   8       4.815   2.295  20.209  0.00  0.00    +0.219 N 
ATOM     62  HZ1 LYS A   8       5.782   2.645  20.176  0.00  0.00    +0.199 HD
ATOM     63  HZ2 LYS A   8       4.734   1.709  21.053  0.00  0.00    +0.199 HD
ATOM     64  HZ3 LYS A   8       4.195   3.106  20.343  0.00  0.00    +0.199 HD
ENDBRANCH  60  61
ENDBRANCH  59  60
ENDBRANCH  58  59
ENDBRANCH  57  58
ENDBRANCH  54  57
ENDBRANCH  51  54
ENDBRANCH  49  50
BRANCH  49  65
ATOM     65  CB  VAL A   7      10.165   0.057  24.232  0.00  0.00    +0.012 C 
ATOM     66  CG2 VAL A   7      11.452   0.607  24.861  0.00  0.00    +0.009 C 
ATOM     67  CG1 VAL A   7       9.082   0.020  25.317  0.00  0.00    +0.009 C 
ENDBRANCH  49  65
ENDBRANCH  47  49
ENDBRANCH  43  45
ENDBRANCH  40  43
ENDBRANCH  38  39
BRANCH  38  68
ATOM     68  CB  SER A   5       3.234   3.821  22.935  0.00  0.00    +0.187 C 
BRANCH  68  69
ATOM     69  OG  SER A   5       3.651   4.398  21.697  0.00  0.00    -0.393 OA
ATOM     70  H   SER A   5       2.893   4.902  21.354  0.00  0.00    +0.209 HD
ENDBRANCH  68  69
ENDBRANCH  38  68
ENDBRANCH  36  38
ENDBRANCH   1  34
BRANCH   1  71
ATOM     71  CB  GLN A   4       5.305   2.141  27.987  0.00  0.00    +0.041 C 
BRANCH  71  72
ATOM     72  CG  GLN A   4       6.405   1.189  28.456  0.00  0.00    +0.098 C 
BRANCH  72  73
ATOM     73  CD  GLN A   4       7.432   1.831  29.364  0.00  0.00    +0.211 C 
ATOM     74  OE1 GLN A   4       7.452   3.038  29.585  0.00  0.00    -0.276 OA
ATOM     75  NE2 GLN A   4       8.411   1.026  29.856  0.00  0.00    -0.329 N 
ATOM     76 HE21 GLN A   4       8.384   0.018  29.815  0.00  0.00    +0.145 HD
ATOM     77 HE22 GLN A   4       9.078   1.455  30.485  0.00  0.00    +0.145 HD
ENDBRANCH  72  73
ENDBRANCH  71  72
ENDBRANCH   1  71
TORSDOF 32
ENDMDL
MODEL 12
REMARK VINA RESULT:      -5.1      2.517      8.969
REMARK  Name = VTFQSAVK-mmff94.pdb
REMARK  38 active torsions:
REMARK  status: ('A' for Active; 'I' for Inactive)
REMARK    1  A    between atoms: _1  and  _2
REMARK    2  A    between atoms: _2  and  _3
REMARK    3  A    between atoms: _2  and  _5
REMARK    4  A    between atoms: _5  and  _6
REMARK    5  A    between atoms: _5  and  _7
REMARK    6  A    between atoms: _17  and  _18
REMARK    7  A    between atoms: _18  and  _19
REMARK    8  A    between atoms: _18  and  _21
REMARK    9  A    between atoms: _21  and  _22
REMARK   10  A    between atoms: _21  and  _23
REMARK   11  A    between atoms: _31  and  _32
REMARK   12  A    between atoms: _32  and  _33
REMARK   13  A    between atoms: _32  and  _35
REMARK   14  A    between atoms: _35  and  _36
REMARK   15  A    between atoms: _51  and  _52
REMARK   16  A    between atoms: _52  and  _53
REMARK   17  A    between atoms: _52  and  _55
REMARK   18  A    between atoms: _55  and  _56
REMARK   19  A    between atoms: _56  and  _57
REMARK   20  A    between atoms: _68  and  _69
REMARK   21  A    between atoms: _69  and  _70
REMARK   22  A    between atoms: _69  and  _72
REMARK   23  A    between atoms: _72  and  _73
REMARK   24  A    between atoms: _79  and  _80
REMARK   25  A    between atoms: _80  and  _81
REMARK   26  A    between atoms: _80  and  _83
REMARK   27  A    between atoms: _89  and  _90
REMARK   28  A    between atoms: _90  and  _91
REMARK   29  A    between atoms: _90  and  _93
REMARK   30  A    between atoms: _93  and  _94
REMARK   31  A    between atoms: _93  and  _95
REMARK   32  A    between atoms: _105  and  _106
REMARK   33  A    between atoms: _106  and  _107
REMARK   34  A    between atoms: _106  and  _109
REMARK   35  A    between atoms: _109  and  _110
REMARK   36  A    between atoms: _110  and  _111
REMARK   37  A    between atoms: _111  and  _112
REMARK   38  A    between atoms: _112  and  _113
REMARK                            x       y       z     vdW  Elec       q    Type
REMARK                         _______ _______ _______ _____ _____    ______ ____
ROOT
ATOM      1  CA  GLN A   4       7.565   1.038  26.168  0.00  0.00    +0.159 C 
ENDROOT
BRANCH   1   4
ATOM      2  C   PHE A   3       6.689   3.353  25.882  0.00  0.00    +0.234 C 
ATOM      3  O   PHE A   3       7.810   3.854  25.976  0.00  0.00    -0.274 OA
ATOM      4  N   GLN A   4       6.480   1.997  25.950  0.00  0.00    -0.302 N 
ATOM      5  H   GLN A   4       5.536   1.617  25.929  0.00  0.00    +0.150 HD
BRANCH   2   6
ATOM      6  CA  PHE A   3       5.426   4.195  25.620  0.00  0.00    +0.163 C 
BRANCH   6   8
ATOM      7  C   THR A   2       4.638   3.243  23.460  0.00  0.00    +0.236 C 
ATOM      8  N   PHE A   3       5.232   4.257  24.172  0.00  0.00    -0.302 N 
ATOM      9  H   PHE A   3       5.457   5.137  23.718  0.00  0.00    +0.150 HD
ATOM     10  O   THR A   2       4.230   2.205  23.982  0.00  0.00    -0.274 OA
BRANCH   7  11
ATOM     11  CA  THR A   2       4.464   3.521  21.960  0.00  0.00    +0.187 C 
BRANCH  11  14
ATOM     12  C   VAL A   1       6.413   2.156  21.234  0.00  0.00    +0.231 C 
ATOM     13  O   VAL A   1       7.222   2.818  21.882  0.00  0.00    -0.274 OA
ATOM     14  N   THR A   2       5.058   2.386  21.249  0.00  0.00    -0.301 N 
ATOM     15  H   THR A   2       4.426   1.771  20.751  0.00  0.00    +0.150 HD
BRANCH  12  16
ATOM     16  CA  VAL A   1       6.853   1.008  20.293  0.00  0.00    +0.140 C 
BRANCH  16  17
ATOM     17  N   VAL A   1       7.208  -0.153  21.139  0.00  0.00    -0.320 NA
ATOM     18  H1  VAL A   1       8.156  -0.438  20.873  0.00  0.00    +0.119 HD
ATOM     19  H2  VAL A   1       6.625  -0.943  20.856  0.00  0.00    +0.119 HD
ENDBRANCH  16  17
BRANCH  16  20
ATOM     20  CB  VAL A   1       5.728   0.653  19.294  0.00  0.00    +0.009 C 
ATOM     21  CG2 VAL A   1       5.972   1.315  17.934  0.00  0.00    +0.009 C 
ATOM     22  CG1 VAL A   1       5.598  -0.862  19.094  0.00  0.00    +0.009 C 
ENDBRANCH  16  20
ENDBRANCH  12  16
ENDBRANCH  11  14
BRANCH  11  23
ATOM     23  CB  THR A   2       2.959   3.649  21.630  0.00  0.00    +0.141 C 
ATOM     24  CG2 THR A   2       2.479   2.592  20.641  0.00  0.00    +0.040 C 
BRANCH  23  25
ATOM     25  OG1 THR A   2       2.181   3.516  22.827  0.00  0.00    -0.390 OA
ATOM     26  HG1 THR A   2       1.962   4.407  23.145  0.00  0.00    +0.210 HD
ENDBRANCH  23  25
ENDBRANCH  11  23
ENDBRANCH   7  11
ENDBRANCH   6   8
BRANCH   6  27
ATOM     27  CB  PHE A   3       4.238   3.536  26.338  0.00  0.00    +0.067 C 
BRANCH  27  28
ATOM     28  CG  PHE A   3       4.175   3.814  27.821  0.00  0.00    -0.045 A 
ATOM     29  CD2 PHE A   3       3.641   2.859  28.698  0.00  0.00    +0.004 A 
ATOM     30  CE2 PHE A   3       3.593   3.107  30.070  0.00  0.00    +0.000 A 
ATOM     31  CZ  PHE A   3       4.068   4.313  30.580  0.00  0.00    +0.000 A 
ATOM     32  CE1 PHE A   3       4.597   5.271  29.717  0.00  0.00    +0.000 A 
ATOM     33  CD1 PHE A   3       4.654   5.023  28.345  0.00  0.00    +0.004 A 
ENDBRANCH  27  28
ENDBRANCH   6  27
ENDBRANCH   2   6
ENDBRANCH   1   4
BRANCH   1  34
ATOM     34  C   GLN A   4       7.686   0.225  24.864  0.00  0.00    +0.234 C 
ATOM     35  O   GLN A   4       6.760   0.144  24.057  0.00  0.00    -0.274 OA
ATOM     36  N   SER A   5       8.874  -0.436  24.684  0.00  0.00    -0.301 N 
ATOM     37  H   SER A   5       9.622  -0.385  25.374  0.00  0.00    +0.150 HD
BRANCH  36  38
ATOM     38  CA  SER A   5       9.078  -1.392  23.592  0.00  0.00    +0.184 C 
BRANCH  38  39
ATOM     39  C   SER A   5       9.411  -2.755  24.222  0.00  0.00    +0.236 C 
ATOM     40  N   ALA A   6       8.487  -3.240  25.114  0.00  0.00    -0.303 N 
ATOM     41  H   ALA A   6       7.649  -2.712  25.344  0.00  0.00    +0.149 HD
ATOM     42  O   SER A   5      10.453  -3.356  23.950  0.00  0.00    -0.274 OA
BRANCH  40  43
ATOM     43  CA  ALA A   6       8.606  -4.561  25.719  0.00  0.00    +0.156 C 
ATOM     44  CB  ALA A   6       9.793  -4.651  26.667  0.00  0.00    +0.038 C 
BRANCH  43  45
ATOM     45  C   ALA A   6       7.305  -4.838  26.490  0.00  0.00    +0.234 C 
ATOM     46  O   ALA A   6       7.077  -5.930  27.012  0.00  0.00    -0.274 OA
ATOM     47  N   VAL A   7       6.417  -3.792  26.528  0.00  0.00    -0.302 N 
ATOM     48  H   VAL A   7       6.647  -2.909  26.077  0.00  0.00    +0.150 HD
BRANCH  47  49
ATOM     49  CA  VAL A   7       5.137  -3.852  27.235  0.00  0.00    +0.161 C 
BRANCH  49  50
ATOM     50  C   VAL A   7       4.156  -4.520  26.242  0.00  0.00    +0.234 C 
ATOM     51  N   LYS A   8       4.723  -5.001  25.086  0.00  0.00    -0.304 N 
ATOM     52  H   LYS A   8       5.715  -4.859  24.903  0.00  0.00    +0.149 HD
ATOM     53  O   VAL A   7       2.955  -4.652  26.481  0.00  0.00    -0.274 OA
BRANCH  51  54
ATOM     54  CA  LYS A   8       3.977  -5.808  24.131  0.00  0.00    +0.136 C 
BRANCH  54  55
ATOM     55  C   LYS A   8       4.031  -7.243  24.634  0.00  0.00    +0.245 C 
ATOM     56  O   LYS A   8       3.086  -8.026  24.550  0.00  0.00    -0.299 OA
ENDBRANCH  54  55
BRANCH  54  57
ATOM     57  CB  LYS A   8       4.568  -5.697  22.720  0.00  0.00    +0.030 C 
BRANCH  57  58
ATOM     58  CG  LYS A   8       6.101  -5.740  22.707  0.00  0.00    +0.007 C 
BRANCH  58  59
ATOM     59  CD  LYS A   8       6.687  -4.447  22.128  0.00  0.00    +0.051 C 
BRANCH  59  60
ATOM     60  CE  LYS A   8       5.612  -3.387  21.930  0.00  0.00    +0.127 C 
BRANCH  60  61
ATOM     61  NZ  LYS A   8       5.770  -2.333  22.960  0.00  0.00    +0.219 N 
ATOM     62  HZ1 LYS A   8       6.396  -2.632  23.719  0.00  0.00    +0.199 HD
ATOM     63  HZ2 LYS A   8       4.865  -2.096  23.390  0.00  0.00    +0.199 HD
ATOM     64  HZ3 LYS A   8       6.154  -1.464  22.564  0.00  0.00    +0.199 HD
ENDBRANCH  60  61
ENDBRANCH  59  60
ENDBRANCH  58  59
ENDBRANCH  57  58
ENDBRANCH  54  57
ENDBRANCH  51  54
ENDBRANCH  49  50
BRANCH  49  65
ATOM     65  CB  VAL A   7       4.642  -2.443  27.658  0.00  0.00    +0.012 C 
ATOM     66  CG2 VAL A   7       4.053  -1.649  26.484  0.00  0.00    +0.009 C 
ATOM     67  CG1 VAL A   7       3.585  -2.506  28.768  0.00  0.00    +0.009 C 
ENDBRANCH  49  65
ENDBRANCH  47  49
ENDBRANCH  43  45
ENDBRANCH  40  43
ENDBRANCH  38  39
BRANCH  38  68
ATOM     68  CB  SER A   5      10.182  -0.942  22.627  0.00  0.00    +0.187 C 
BRANCH  68  69
ATOM     69  OG  SER A   5      10.057  -1.573  21.353  0.00  0.00    -0.393 OA
ATOM     70  H   SER A   5       9.120  -1.500  21.095  0.00  0.00    +0.209 HD
ENDBRANCH  68  69
ENDBRANCH  38  68
ENDBRANCH  36  38
ENDBRANCH   1  34
BRANCH   1  71
ATOM     71  CB  GLN A   4       7.248   0.129  27.366  0.00  0.00    +0.041 C 
BRANCH  71  72
ATOM     72  CG  GLN A   4       6.549   0.852  28.517  0.00  0.00    +0.098 C 
BRANCH  72  73
ATOM     73  CD  GLN A   4       7.466   1.729  29.343  0.00  0.00    +0.211 C 
ATOM     74  OE1 GLN A   4       7.356   2.952  29.373  0.00  0.00    -0.276 OA
ATOM     75  NE2 GLN A   4       8.496   1.116  29.983  0.00  0.00    -0.329 N 
ATOM     76 HE21 GLN A   4       8.571   0.116  30.100  0.00  0.00    +0.145 HD
ATOM     77 HE22 GLN A   4       9.089   1.703  30.557  0.00  0.00    +0.145 HD
ENDBRANCH  72  73
ENDBRANCH  71  72
ENDBRANCH   1  71
TORSDOF 32
ENDMDL
MODEL 13
REMARK VINA RESULT:      -5.1      1.998      5.941
REMARK  Name = VTFQSAVK-mmff94.pdb
REMARK  38 active torsions:
REMARK  status: ('A' for Active; 'I' for Inactive)
REMARK    1  A    between atoms: _1  and  _2
REMARK    2  A    between atoms: _2  and  _3
REMARK    3  A    between atoms: _2  and  _5
REMARK    4  A    between atoms: _5  and  _6
REMARK    5  A    between atoms: _5  and  _7
REMARK    6  A    between atoms: _17  and  _18
REMARK    7  A    between atoms: _18  and  _19
REMARK    8  A    between atoms: _18  and  _21
REMARK    9  A    between atoms: _21  and  _22
REMARK   10  A    between atoms: _21  and  _23
REMARK   11  A    between atoms: _31  and  _32
REMARK   12  A    between atoms: _32  and  _33
REMARK   13  A    between atoms: _32  and  _35
REMARK   14  A    between atoms: _35  and  _36
REMARK   15  A    between atoms: _51  and  _52
REMARK   16  A    between atoms: _52  and  _53
REMARK   17  A    between atoms: _52  and  _55
REMARK   18  A    between atoms: _55  and  _56
REMARK   19  A    between atoms: _56  and  _57
REMARK   20  A    between atoms: _68  and  _69
REMARK   21  A    between atoms: _69  and  _70
REMARK   22  A    between atoms: _69  and  _72
REMARK   23  A    between atoms: _72  and  _73
REMARK   24  A    between atoms: _79  and  _80
REMARK   25  A    between atoms: _80  and  _81
REMARK   26  A    between atoms: _80  and  _83
REMARK   27  A    between atoms: _89  and  _90
REMARK   28  A    between atoms: _90  and  _91
REMARK   29  A    between atoms: _90  and  _93
REMARK   30  A    between atoms: _93  and  _94
REMARK   31  A    between atoms: _93  and  _95
REMARK   32  A    between atoms: _105  and  _106
REMARK   33  A    between atoms: _106  and  _107
REMARK   34  A    between atoms: _106  and  _109
REMARK   35  A    between atoms: _109  and  _110
REMARK   36  A    between atoms: _110  and  _111
REMARK   37  A    between atoms: _111  and  _112
REMARK   38  A    between atoms: _112  and  _113
REMARK                            x       y       z     vdW  Elec       q    Type
REMARK                         _______ _______ _______ _____ _____    ______ ____
ROOT
ATOM      1  CA  GLN A   4       8.035  -1.276  25.442  0.00  0.00    +0.159 C 
ENDROOT
BRANCH   1   4
ATOM      2  C   PHE A   3       7.838  -2.888  23.551  0.00  0.00    +0.234 C 
ATOM      3  O   PHE A   3       8.969  -3.337  23.736  0.00  0.00    -0.274 OA
ATOM      4  N   GLN A   4       7.301  -1.898  24.339  0.00  0.00    -0.302 N 
ATOM      5  H   GLN A   4       6.387  -1.506  24.124  0.00  0.00    +0.150 HD
BRANCH   2   6
ATOM      6  CA  PHE A   3       6.899  -3.434  22.459  0.00  0.00    +0.163 C 
BRANCH   6   8
ATOM      7  C   THR A   2       5.270  -4.512  24.000  0.00  0.00    +0.236 C 
ATOM      8  N   PHE A   3       6.219  -4.605  23.010  0.00  0.00    -0.302 N 
ATOM      9  H   PHE A   3       6.396  -5.494  22.553  0.00  0.00    +0.150 HD
ATOM     10  O   THR A   2       4.924  -3.442  24.501  0.00  0.00    -0.274 OA
BRANCH   7  11
ATOM     11  CA  THR A   2       4.621  -5.845  24.401  0.00  0.00    +0.187 C 
BRANCH  11  14
ATOM     12  C   VAL A   1       4.286  -6.350  26.813  0.00  0.00    +0.231 C 
ATOM     13  O   VAL A   1       5.201  -7.171  26.852  0.00  0.00    -0.274 OA
ATOM     14  N   THR A   2       3.965  -5.623  25.692  0.00  0.00    -0.301 N 
ATOM     15  H   THR A   2       3.247  -4.910  25.728  0.00  0.00    +0.150 HD
BRANCH  12  16
ATOM     16  CA  VAL A   1       3.369  -6.080  28.030  0.00  0.00    +0.140 C 
BRANCH  16  17
ATOM     17  N   VAL A   1       2.940  -7.391  28.567  0.00  0.00    -0.320 NA
ATOM     18  H1  VAL A   1       2.797  -8.010  27.763  0.00  0.00    +0.119 HD
ATOM     19  H2  VAL A   1       2.004  -7.282  28.963  0.00  0.00    +0.119 HD
ENDBRANCH  16  17
BRANCH  16  20
ATOM     20  CB  VAL A   1       4.107  -5.247  29.103  0.00  0.00    +0.009 C 
ATOM     21  CG2 VAL A   1       4.273  -3.792  28.652  0.00  0.00    +0.009 C 
ATOM     22  CG1 VAL A   1       3.374  -5.270  30.450  0.00  0.00    +0.009 C 
ENDBRANCH  16  20
ENDBRANCH  12  16
ENDBRANCH  11  14
BRANCH  11  23
ATOM     23  CB  THR A   2       3.591  -6.261  23.325  0.00  0.00    +0.141 C 
ATOM     24  CG2 THR A   2       2.475  -7.139  23.884  0.00  0.00    +0.040 C 
BRANCH  23  25
ATOM     25  OG1 THR A   2       2.986  -5.097  22.747  0.00  0.00    -0.390 OA
ATOM     26  HG1 THR A   2       2.717  -5.316  21.839  0.00  0.00    +0.210 HD
ENDBRANCH  23  25
ENDBRANCH  11  23
ENDBRANCH   7  11
ENDBRANCH   6   8
BRANCH   6  27
ATOM     27  CB  PHE A   3       5.915  -2.325  22.057  0.00  0.00    +0.067 C 
BRANCH  27  28
ATOM     28  CG  PHE A   3       6.372  -1.478  20.892  0.00  0.00    -0.045 A 
ATOM     29  CD2 PHE A   3       7.475  -0.624  21.029  0.00  0.00    +0.004 A 
ATOM     30  CE2 PHE A   3       7.908   0.150  19.952  0.00  0.00    +0.000 A 
ATOM     31  CZ  PHE A   3       7.241   0.086  18.732  0.00  0.00    +0.000 A 
ATOM     32  CE1 PHE A   3       6.140  -0.756  18.586  0.00  0.00    +0.000 A 
ATOM     33  CD1 PHE A   3       5.710  -1.538  19.659  0.00  0.00    +0.004 A 
ENDBRANCH  27  28
ENDBRANCH   6  27
ENDBRANCH   2   6
ENDBRANCH   1   4
BRANCH   1  34
ATOM     34  C   GLN A   4       9.187  -0.482  24.795  0.00  0.00    +0.234 C 
ATOM     35  O   GLN A   4      10.344  -0.903  24.782  0.00  0.00    -0.274 OA
ATOM     36  N   SER A   5       8.847   0.741  24.277  0.00  0.00    -0.301 N 
ATOM     37  H   SER A   5       7.892   1.092  24.320  0.00  0.00    +0.150 HD
BRANCH  36  38
ATOM     38  CA  SER A   5       9.853   1.691  23.794  0.00  0.00    +0.184 C 
BRANCH  38  39
ATOM     39  C   SER A   5       9.235   3.098  23.857  0.00  0.00    +0.236 C 
ATOM     40  N   ALA A   6       7.877   3.160  23.670  0.00  0.00    -0.303 N 
ATOM     41  H   ALA A   6       7.332   2.321  23.487  0.00  0.00    +0.149 HD
ATOM     42  O   SER A   5       9.928   4.101  24.045  0.00  0.00    -0.274 OA
BRANCH  40  43
ATOM     43  CA  ALA A   6       7.128   4.404  23.799  0.00  0.00    +0.156 C 
ATOM     44  CB  ALA A   6       6.471   4.815  22.489  0.00  0.00    +0.038 C 
BRANCH  43  45
ATOM     45  C   ALA A   6       6.049   4.187  24.874  0.00  0.00    +0.234 C 
ATOM     46  O   ALA A   6       6.187   4.597  26.027  0.00  0.00    -0.274 OA
ATOM     47  N   VAL A   7       4.945   3.485  24.456  0.00  0.00    -0.302 N 
ATOM     48  H   VAL A   7       4.878   3.161  23.494  0.00  0.00    +0.150 HD
BRANCH  47  49
ATOM     49  CA  VAL A   7       3.801   3.201  25.324  0.00  0.00    +0.161 C 
BRANCH  49  50
ATOM     50  C   VAL A   7       4.046   1.770  25.860  0.00  0.00    +0.234 C 
ATOM     51  N   LYS A   8       3.372   1.449  27.014  0.00  0.00    -0.304 N 
ATOM     52  H   LYS A   8       2.802   2.148  27.488  0.00  0.00    +0.149 HD
ATOM     53  O   VAL A   7       4.763   0.955  25.277  0.00  0.00    -0.274 OA
BRANCH  51  54
ATOM     54  CA  LYS A   8       3.352   0.096  27.552  0.00  0.00    +0.136 C 
BRANCH  54  55
ATOM     55  C   LYS A   8       1.891  -0.269  27.769  0.00  0.00    +0.245 C 
ATOM     56  O   LYS A   8       1.492  -1.426  27.881  0.00  0.00    -0.299 OA
ENDBRANCH  54  55
BRANCH  54  57
ATOM     57  CB  LYS A   8       4.142   0.004  28.864  0.00  0.00    +0.030 C 
BRANCH  57  58
ATOM     58  CG  LYS A   8       5.641   0.272  28.682  0.00  0.00    +0.007 C 
BRANCH  58  59
ATOM     59  CD  LYS A   8       6.087   1.500  29.483  0.00  0.00    +0.051 C 
BRANCH  59  60
ATOM     60  CE  LYS A   8       6.979   2.413  28.652  0.00  0.00    +0.127 C 
BRANCH  60  61
ATOM     61  NZ  LYS A   8       7.190   1.806  27.316  0.00  0.00    +0.219 N 
ATOM     62  HZ1 LYS A   8       6.820   2.402  26.564  0.00  0.00    +0.199 HD
ATOM     63  HZ2 LYS A   8       6.715   0.895  27.243  0.00  0.00    +0.199 HD
ATOM     64  HZ3 LYS A   8       8.188   1.644  27.122  0.00  0.00    +0.199 HD
ENDBRANCH  60  61
ENDBRANCH  59  60
ENDBRANCH  58  59
ENDBRANCH  57  58
ENDBRANCH  54  57
ENDBRANCH  51  54
ENDBRANCH  49  50
BRANCH  49  65
ATOM     65  CB  VAL A   7       2.455   3.295  24.557  0.00  0.00    +0.012 C 
ATOM     66  CG2 VAL A   7       1.578   4.454  25.046  0.00  0.00    +0.009 C 
ATOM     67  CG1 VAL A   7       2.658   3.456  23.045  0.00  0.00    +0.009 C 
ENDBRANCH  49  65
ENDBRANCH  47  49
ENDBRANCH  43  45
ENDBRANCH  40  43
ENDBRANCH  38  39
BRANCH  38  68
ATOM     68  CB  SER A   5      10.330   1.359  22.374  0.00  0.00    +0.187 C 
BRANCH  68  69
ATOM     69  OG  SER A   5       9.958   2.375  21.443  0.00  0.00    -0.393 OA
ATOM     70  H   SER A   5      10.372   2.140  20.593  0.00  0.00    +0.209 HD
ENDBRANCH  68  69
ENDBRANCH  38  68
ENDBRANCH  36  38
ENDBRANCH   1  34
BRANCH   1  71
ATOM     71  CB  GLN A   4       8.567  -2.347  26.407  0.00  0.00    +0.041 C 
BRANCH  71  72
ATOM     72  CG  GLN A   4       7.525  -3.395  26.795  0.00  0.00    +0.098 C 
BRANCH  72  73
ATOM     73  CD  GLN A   4       8.071  -4.805  26.888  0.00  0.00    +0.211 C 
ATOM     74  OE1 GLN A   4       7.562  -5.662  27.603  0.00  0.00    -0.276 OA
ATOM     75  NE2 GLN A   4       9.224  -5.066  26.216  0.00  0.00    -0.329 N 
ATOM     76 HE21 GLN A   4       9.621  -4.452  25.520  0.00  0.00    +0.145 HD
ATOM     77 HE22 GLN A   4       9.569  -6.017  26.258  0.00  0.00    +0.145 HD
ENDBRANCH  72  73
ENDBRANCH  71  72
ENDBRANCH   1  71
TORSDOF 32
ENDMDL
MODEL 14
REMARK VINA RESULT:      -5.1      2.267      8.611
REMARK  Name = VTFQSAVK-mmff94.pdb
REMARK  38 active torsions:
REMARK  status: ('A' for Active; 'I' for Inactive)
REMARK    1  A    between atoms: _1  and  _2
REMARK    2  A    between atoms: _2  and  _3
REMARK    3  A    between atoms: _2  and  _5
REMARK    4  A    between atoms: _5  and  _6
REMARK    5  A    between atoms: _5  and  _7
REMARK    6  A    between atoms: _17  and  _18
REMARK    7  A    between atoms: _18  and  _19
REMARK    8  A    between atoms: _18  and  _21
REMARK    9  A    between atoms: _21  and  _22
REMARK   10  A    between atoms: _21  and  _23
REMARK   11  A    between atoms: _31  and  _32
REMARK   12  A    between atoms: _32  and  _33
REMARK   13  A    between atoms: _32  and  _35
REMARK   14  A    between atoms: _35  and  _36
REMARK   15  A    between atoms: _51  and  _52
REMARK   16  A    between atoms: _52  and  _53
REMARK   17  A    between atoms: _52  and  _55
REMARK   18  A    between atoms: _55  and  _56
REMARK   19  A    between atoms: _56  and  _57
REMARK   20  A    between atoms: _68  and  _69
REMARK   21  A    between atoms: _69  and  _70
REMARK   22  A    between atoms: _69  and  _72
REMARK   23  A    between atoms: _72  and  _73
REMARK   24  A    between atoms: _79  and  _80
REMARK   25  A    between atoms: _80  and  _81
REMARK   26  A    between atoms: _80  and  _83
REMARK   27  A    between atoms: _89  and  _90
REMARK   28  A    between atoms: _90  and  _91
REMARK   29  A    between atoms: _90  and  _93
REMARK   30  A    between atoms: _93  and  _94
REMARK   31  A    between atoms: _93  and  _95
REMARK   32  A    between atoms: _105  and  _106
REMARK   33  A    between atoms: _106  and  _107
REMARK   34  A    between atoms: _106  and  _109
REMARK   35  A    between atoms: _109  and  _110
REMARK   36  A    between atoms: _110  and  _111
REMARK   37  A    between atoms: _111  and  _112
REMARK   38  A    between atoms: _112  and  _113
REMARK                            x       y       z     vdW  Elec       q    Type
REMARK                         _______ _______ _______ _____ _____    ______ ____
ROOT
ATOM      1  CA  GLN A   4       9.205  -0.630  23.897  0.00  0.00    +0.159 C 
ENDROOT
BRANCH   1   4
ATOM      2  C   PHE A   3       8.099  -0.223  26.092  0.00  0.00    +0.234 C 
ATOM      3  O   PHE A   3       9.116  -0.505  26.726  0.00  0.00    -0.274 OA
ATOM      4  N   GLN A   4       8.056  -0.244  24.719  0.00  0.00    -0.302 N 
ATOM      5  H   GLN A   4       7.185  -0.065  24.226  0.00  0.00    +0.150 HD
BRANCH   2   6
ATOM      6  CA  PHE A   3       6.797   0.236  26.777  0.00  0.00    +0.163 C 
BRANCH   6   8
ATOM      7  C   THR A   2       6.877   2.639  27.416  0.00  0.00    +0.236 C 
ATOM      8  N   PHE A   3       6.626   1.658  26.487  0.00  0.00    -0.302 N 
ATOM      9  H   PHE A   3       6.417   1.907  25.525  0.00  0.00    +0.150 HD
ATOM     10  O   THR A   2       7.257   2.398  28.562  0.00  0.00    -0.274 OA
BRANCH   7  11
ATOM     11  CA  THR A   2       6.704   4.076  26.903  0.00  0.00    +0.187 C 
BRANCH  11  14
ATOM     12  C   VAL A   1       7.024   4.927  24.588  0.00  0.00    +0.231 C 
ATOM     13  O   VAL A   1       7.744   5.859  24.943  0.00  0.00    -0.274 OA
ATOM     14  N   THR A   2       6.518   3.987  25.453  0.00  0.00    -0.301 N 
ATOM     15  H   THR A   2       5.984   3.200  25.104  0.00  0.00    +0.150 HD
BRANCH  12  16
ATOM     16  CA  VAL A   1       6.579   4.743  23.117  0.00  0.00    +0.140 C 
BRANCH  16  17
ATOM     17  N   VAL A   1       7.731   5.088  22.254  0.00  0.00    -0.320 NA
ATOM     18  H1  VAL A   1       8.293   4.236  22.153  0.00  0.00    +0.119 HD
ATOM     19  H2  VAL A   1       8.340   5.723  22.775  0.00  0.00    +0.119 HD
ENDBRANCH  16  17
BRANCH  16  20
ATOM     20  CB  VAL A   1       6.099   3.296  22.864  0.00  0.00    +0.009 C 
ATOM     21  CG2 VAL A   1       4.677   3.279  22.294  0.00  0.00    +0.009 C 
ATOM     22  CG1 VAL A   1       7.029   2.545  21.902  0.00  0.00    +0.009 C 
ENDBRANCH  16  20
ENDBRANCH  12  16
ENDBRANCH  11  14
BRANCH  11  23
ATOM     23  CB  THR A   2       5.470   4.720  27.578  0.00  0.00    +0.141 C 
ATOM     24  CG2 THR A   2       4.155   4.093  27.124  0.00  0.00    +0.040 C 
BRANCH  23  25
ATOM     25  OG1 THR A   2       5.557   4.574  29.002  0.00  0.00    -0.390 OA
ATOM     26  HG1 THR A   2       6.195   3.867  29.194  0.00  0.00    +0.210 HD
ENDBRANCH  23  25
ENDBRANCH  11  23
ENDBRANCH   7  11
ENDBRANCH   6   8
BRANCH   6  27
ATOM     27  CB  PHE A   3       5.633  -0.611  26.240  0.00  0.00    +0.067 C 
BRANCH  27  28
ATOM     28  CG  PHE A   3       4.446  -0.699  27.170  0.00  0.00    -0.045 A 
ATOM     29  CD2 PHE A   3       4.422  -1.651  28.199  0.00  0.00    +0.004 A 
ATOM     30  CE2 PHE A   3       3.333  -1.727  29.068  0.00  0.00    +0.000 A 
ATOM     31  CZ  PHE A   3       2.254  -0.861  28.913  0.00  0.00    +0.000 A 
ATOM     32  CE1 PHE A   3       2.265   0.087  27.891  0.00  0.00    +0.000 A 
ATOM     33  CD1 PHE A   3       3.357   0.170  27.025  0.00  0.00    +0.004 A 
ENDBRANCH  27  28
ENDBRANCH   6  27
ENDBRANCH   2   6
ENDBRANCH   1   4
BRANCH   1  34
ATOM     34  C   GLN A   4       9.348  -2.157  24.051  0.00  0.00    +0.234 C 
ATOM     35  O   GLN A   4      10.108  -2.817  23.341  0.00  0.00    -0.274 OA
ATOM     36  N   SER A   5       8.544  -2.736  24.998  0.00  0.00    -0.301 N 
ATOM     37  H   SER A   5       7.898  -2.183  25.560  0.00  0.00    +0.150 HD
BRANCH  36  38
ATOM     38  CA  SER A   5       8.429  -4.190  25.141  0.00  0.00    +0.184 C 
BRANCH  38  39
ATOM     39  C   SER A   5       7.150  -4.480  25.946  0.00  0.00    +0.236 C 
ATOM     40  N   ALA A   6       7.043  -5.750  26.454  0.00  0.00    -0.303 N 
ATOM     41  H   ALA A   6       7.765  -6.448  26.288  0.00  0.00    +0.149 HD
ATOM     42  O   SER A   5       6.276  -3.624  26.102  0.00  0.00    -0.274 OA
BRANCH  40  43
ATOM     43  CA  ALA A   6       5.943  -6.153  27.322  0.00  0.00    +0.156 C 
ATOM     44  CB  ALA A   6       5.620  -5.092  28.366  0.00  0.00    +0.038 C 
BRANCH  43  45
ATOM     45  C   ALA A   6       4.713  -6.394  26.432  0.00  0.00    +0.234 C 
ATOM     46  O   ALA A   6       4.496  -7.484  25.901  0.00  0.00    -0.274 OA
ATOM     47  N   VAL A   7       3.899  -5.302  26.256  0.00  0.00    -0.302 N 
ATOM     48  H   VAL A   7       4.121  -4.419  26.711  0.00  0.00    +0.150 HD
BRANCH  47  49
ATOM     49  CA  VAL A   7       2.667  -5.339  25.465  0.00  0.00    +0.161 C 
BRANCH  49  50
ATOM     50  C   VAL A   7       3.080  -4.868  24.051  0.00  0.00    +0.234 C 
ATOM     51  N   LYS A   8       4.358  -4.376  23.942  0.00  0.00    -0.304 N 
ATOM     52  H   LYS A   8       4.947  -4.289  24.768  0.00  0.00    +0.149 HD
ATOM     53  O   VAL A   7       2.334  -4.963  23.075  0.00  0.00    -0.274 OA
BRANCH  51  54
ATOM     54  CA  LYS A   8       4.962  -4.056  22.655  0.00  0.00    +0.136 C 
BRANCH  54  55
ATOM     55  C   LYS A   8       5.759  -5.280  22.229  0.00  0.00    +0.245 C 
ATOM     56  O   LYS A   8       5.870  -5.641  21.059  0.00  0.00    -0.299 OA
ENDBRANCH  54  55
BRANCH  54  57
ATOM     57  CB  LYS A   8       5.863  -2.819  22.752  0.00  0.00    +0.030 C 
BRANCH  57  58
ATOM     58  CG  LYS A   8       6.463  -2.406  21.403  0.00  0.00    +0.007 C 
BRANCH  58  59
ATOM     59  CD  LYS A   8       6.344  -0.894  21.181  0.00  0.00    +0.051 C 
BRANCH  59  60
ATOM     60  CE  LYS A   8       6.418  -0.540  19.701  0.00  0.00    +0.127 C 
BRANCH  60  61
ATOM     61  NZ  LYS A   8       5.570  -1.482  18.932  0.00  0.00    +0.219 N 
ATOM     62  HZ1 LYS A   8       5.335  -1.111  18.001  0.00  0.00    +0.199 HD
ATOM     63  HZ2 LYS A   8       4.680  -1.663  19.418  0.00  0.00    +0.199 HD
ATOM     64  HZ3 LYS A   8       6.032  -2.391  18.796  0.00  0.00    +0.199 HD
ENDBRANCH  60  61
ENDBRANCH  59  60
ENDBRANCH  58  59
ENDBRANCH  57  58
ENDBRANCH  54  57
ENDBRANCH  51  54
ENDBRANCH  49  50
BRANCH  49  65
ATOM     65  CB  VAL A   7       1.565  -4.426  26.067  0.00  0.00    +0.012 C 
ATOM     66  CG2 VAL A   7       1.455  -4.562  27.591  0.00  0.00    +0.009 C 
ATOM     67  CG1 VAL A   7       1.792  -2.946  25.735  0.00  0.00    +0.009 C 
ENDBRANCH  49  65
ENDBRANCH  47  49
ENDBRANCH  43  45
ENDBRANCH  40  43
ENDBRANCH  38  39
BRANCH  38  68
ATOM     68  CB  SER A   5       9.661  -4.806  25.817  0.00  0.00    +0.187 C 
BRANCH  68  69
ATOM     69  OG  SER A   5       9.961  -6.097  25.287  0.00  0.00    -0.393 OA
ATOM     70  H   SER A   5       9.237  -6.688  25.562  0.00  0.00    +0.209 HD
ENDBRANCH  68  69
ENDBRANCH  38  68
ENDBRANCH  36  38
ENDBRANCH   1  34
BRANCH   1  71
ATOM     71  CB  GLN A   4      10.473   0.102  24.365  0.00  0.00    +0.041 C 
BRANCH  71  72
ATOM     72  CG  GLN A   4      10.834   1.313  23.506  0.00  0.00    +0.098 C 
BRANCH  72  73
ATOM     73  CD  GLN A   4      10.086   2.577  23.875  0.00  0.00    +0.211 C 
ATOM     74  OE1 GLN A   4       9.242   2.606  24.766  0.00  0.00    -0.276 OA
ATOM     75  NE2 GLN A   4      10.311   3.675  23.106  0.00  0.00    -0.329 N 
ATOM     76 HE21 GLN A   4      11.070   3.754  22.446  0.00  0.00    +0.145 HD
ATOM     77 HE22 GLN A   4       9.829   4.524  23.374  0.00  0.00    +0.145 HD
ENDBRANCH  72  73
ENDBRANCH  71  72
ENDBRANCH   1  71
TORSDOF 32
ENDMDL
MODEL 15
REMARK VINA RESULT:      -5.1      1.765      3.886
REMARK  Name = VTFQSAVK-mmff94.pdb
REMARK  38 active torsions:
REMARK  status: ('A' for Active; 'I' for Inactive)
REMARK    1  A    between atoms: _1  and  _2
REMARK    2  A    between atoms: _2  and  _3
REMARK    3  A    between atoms: _2  and  _5
REMARK    4  A    between atoms: _5  and  _6
REMARK    5  A    between atoms: _5  and  _7
REMARK    6  A    between atoms: _17  and  _18
REMARK    7  A    between atoms: _18  and  _19
REMARK    8  A    between atoms: _18  and  _21
REMARK    9  A    between atoms: _21  and  _22
REMARK   10  A    between atoms: _21  and  _23
REMARK   11  A    between atoms: _31  and  _32
REMARK   12  A    between atoms: _32  and  _33
REMARK   13  A    between atoms: _32  and  _35
REMARK   14  A    between atoms: _35  and  _36
REMARK   15  A    between atoms: _51  and  _52
REMARK   16  A    between atoms: _52  and  _53
REMARK   17  A    between atoms: _52  and  _55
REMARK   18  A    between atoms: _55  and  _56
REMARK   19  A    between atoms: _56  and  _57
REMARK   20  A    between atoms: _68  and  _69
REMARK   21  A    between atoms: _69  and  _70
REMARK   22  A    between atoms: _69  and  _72
REMARK   23  A    between atoms: _72  and  _73
REMARK   24  A    between atoms: _79  and  _80
REMARK   25  A    between atoms: _80  and  _81
REMARK   26  A    between atoms: _80  and  _83
REMARK   27  A    between atoms: _89  and  _90
REMARK   28  A    between atoms: _90  and  _91
REMARK   29  A    between atoms: _90  and  _93
REMARK   30  A    between atoms: _93  and  _94
REMARK   31  A    between atoms: _93  and  _95
REMARK   32  A    between atoms: _105  and  _106
REMARK   33  A    between atoms: _106  and  _107
REMARK   34  A    between atoms: _106  and  _109
REMARK   35  A    between atoms: _109  and  _110
REMARK   36  A    between atoms: _110  and  _111
REMARK   37  A    between atoms: _111  and  _112
REMARK   38  A    between atoms: _112  and  _113
REMARK                            x       y       z     vdW  Elec       q    Type
REMARK                         _______ _______ _______ _____ _____    ______ ____
ROOT
ATOM      1  CA  GLN A   4       3.923  -0.649  27.773  0.00  0.00    +0.159 C 
ENDROOT
BRANCH   1   4
ATOM      2  C   PHE A   3       4.854  -1.854  25.800  0.00  0.00    +0.234 C 
ATOM      3  O   PHE A   3       3.762  -2.340  25.506  0.00  0.00    -0.274 OA
ATOM      4  N   GLN A   4       5.021  -1.014  26.875  0.00  0.00    -0.302 N 
ATOM      5  H   GLN A   4       5.946  -0.676  27.129  0.00  0.00    +0.150 HD
BRANCH   2   6
ATOM      6  CA  PHE A   3       6.122  -2.095  24.960  0.00  0.00    +0.163 C 
BRANCH   6   8
ATOM      7  C   THR A   2       7.858  -3.375  26.201  0.00  0.00    +0.236 C 
ATOM      8  N   PHE A   3       6.725  -3.344  25.424  0.00  0.00    -0.302 N 
ATOM      9  H   PHE A   3       6.208  -4.198  25.240  0.00  0.00    +0.150 HD
ATOM     10  O   THR A   2       8.455  -2.360  26.560  0.00  0.00    -0.274 OA
BRANCH   7  11
ATOM     11  CA  THR A   2       8.302  -4.777  26.643  0.00  0.00    +0.187 C 
BRANCH  11  14
ATOM     12  C   VAL A   1       6.381  -5.879  27.777  0.00  0.00    +0.231 C 
ATOM     13  O   VAL A   1       6.621  -5.359  28.865  0.00  0.00    -0.274 OA
ATOM     14  N   THR A   2       7.104  -5.619  26.637  0.00  0.00    -0.301 N 
ATOM     15  H   THR A   2       6.826  -6.021  25.749  0.00  0.00    +0.150 HD
BRANCH  12  16
ATOM     16  CA  VAL A   1       5.252  -6.921  27.591  0.00  0.00    +0.140 C 
BRANCH  16  17
ATOM     17  N   VAL A   1       4.703  -7.229  28.930  0.00  0.00    -0.320 NA
ATOM     18  H1  VAL A   1       5.131  -8.111  29.232  0.00  0.00    +0.119 HD
ATOM     19  H2  VAL A   1       3.713  -7.461  28.823  0.00  0.00    +0.119 HD
ENDBRANCH  16  17
BRANCH  16  20
ATOM     20  CB  VAL A   1       4.155  -6.382  26.645  0.00  0.00    +0.009 C 
ATOM     21  CG2 VAL A   1       4.044  -7.244  25.383  0.00  0.00    +0.009 C 
ATOM     22  CG1 VAL A   1       2.785  -6.324  27.331  0.00  0.00    +0.009 C 
ENDBRANCH  16  20
ENDBRANCH  12  16
ENDBRANCH  11  14
BRANCH  11  23
ATOM     23  CB  THR A   2       9.361  -5.319  25.655  0.00  0.00    +0.141 C 
ATOM     24  CG2 THR A   2       8.766  -6.254  24.607  0.00  0.00    +0.040 C 
BRANCH  23  25
ATOM     25  OG1 THR A   2       9.991  -4.232  24.966  0.00  0.00    -0.390 OA
ATOM     26  HG1 THR A   2      10.131  -4.501  24.043  0.00  0.00    +0.210 HD
ENDBRANCH  23  25
ENDBRANCH  11  23
ENDBRANCH   7  11
ENDBRANCH   6   8
BRANCH   6  27
ATOM     27  CB  PHE A   3       5.725  -2.157  23.477  0.00  0.00    +0.067 C 
BRANCH  27  28
ATOM     28  CG  PHE A   3       5.897  -3.517  22.842  0.00  0.00    -0.045 A 
ATOM     29  CD2 PHE A   3       7.088  -3.843  22.179  0.00  0.00    +0.004 A 
ATOM     30  CE2 PHE A   3       7.255  -5.103  21.602  0.00  0.00    +0.000 A 
ATOM     31  CZ  PHE A   3       6.233  -6.046  21.674  0.00  0.00    +0.000 A 
ATOM     32  CE1 PHE A   3       5.043  -5.731  22.328  0.00  0.00    +0.000 A 
ATOM     33  CD1 PHE A   3       4.876  -4.475  22.913  0.00  0.00    +0.004 A 
ENDBRANCH  27  28
ENDBRANCH   6  27
ENDBRANCH   2   6
ENDBRANCH   1   4
BRANCH   1  34
ATOM     34  C   GLN A   4       4.029   0.875  27.981  0.00  0.00    +0.234 C 
ATOM     35  O   GLN A   4       3.280   1.483  28.746  0.00  0.00    -0.274 OA
ATOM     36  N   SER A   5       4.978   1.513  27.225  0.00  0.00    -0.301 N 
ATOM     37  H   SER A   5       5.572   1.002  26.573  0.00  0.00    +0.150 HD
BRANCH  36  38
ATOM     38  CA  SER A   5       5.081   2.974  27.171  0.00  0.00    +0.184 C 
BRANCH  38  39
ATOM     39  C   SER A   5       4.626   3.422  25.772  0.00  0.00    +0.236 C 
ATOM     40  N   ALA A   6       5.578   4.053  25.011  0.00  0.00    -0.303 N 
ATOM     41  H   ALA A   6       6.515   4.219  25.370  0.00  0.00    +0.149 HD
ATOM     42  O   SER A   5       3.472   3.239  25.377  0.00  0.00    -0.274 OA
BRANCH  40  43
ATOM     43  CA  ALA A   6       5.336   4.448  23.629  0.00  0.00    +0.156 C 
ATOM     44  CB  ALA A   6       4.644   5.801  23.533  0.00  0.00    +0.038 C 
BRANCH  43  45
ATOM     45  C   ALA A   6       6.698   4.512  22.917  0.00  0.00    +0.234 C 
ATOM     46  O   ALA A   6       6.896   5.256  21.956  0.00  0.00    -0.274 OA
ATOM     47  N   VAL A   7       7.655   3.664  23.417  0.00  0.00    -0.302 N 
ATOM     48  H   VAL A   7       7.443   3.063  24.210  0.00  0.00    +0.150 HD
BRANCH  47  49
ATOM     49  CA  VAL A   7       9.020   3.598  22.892  0.00  0.00    +0.161 C 
BRANCH  49  50
ATOM     50  C   VAL A   7       9.233   2.116  22.504  0.00  0.00    +0.234 C 
ATOM     51  N   LYS A   8       8.501   1.205  23.226  0.00  0.00    -0.304 N 
ATOM     52  H   LYS A   8       7.910   1.515  23.996  0.00  0.00    +0.149 HD
ATOM     53  O   VAL A   7       9.976   1.770  21.583  0.00  0.00    -0.274 OA
BRANCH  51  54
ATOM     54  CA  LYS A   8       8.451  -0.207  22.874  0.00  0.00    +0.136 C 
BRANCH  54  55
ATOM     55  C   LYS A   8       9.579  -0.889  23.635  0.00  0.00    +0.245 C 
ATOM     56  O   LYS A   8      10.760  -0.564  23.529  0.00  0.00    -0.299 OA
ENDBRANCH  54  55
BRANCH  54  57
ATOM     57  CB  LYS A   8       8.605  -0.413  21.362  0.00  0.00    +0.030 C 
BRANCH  57  58
ATOM     58  CG  LYS A   8       7.273  -0.331  20.606  0.00  0.00    +0.007 C 
BRANCH  58  59
ATOM     59  CD  LYS A   8       7.473   0.212  19.187  0.00  0.00    +0.051 C 
BRANCH  59  60
ATOM     60  CE  LYS A   8       6.145   0.589  18.543  0.00  0.00    +0.127 C 
BRANCH  60  61
ATOM     61  NZ  LYS A   8       5.621  -0.575  17.788  0.00  0.00    +0.219 N 
ATOM     62  HZ1 LYS A   8       6.367  -1.064  17.276  0.00  0.00    +0.199 HD
ATOM     63  HZ2 LYS A   8       4.920  -0.281  17.093  0.00  0.00    +0.199 HD
ATOM     64  HZ3 LYS A   8       5.167  -1.261  18.407  0.00  0.00    +0.199 HD
ENDBRANCH  60  61
ENDBRANCH  59  60
ENDBRANCH  58  59
ENDBRANCH  57  58
ENDBRANCH  54  57
ENDBRANCH  51  54
ENDBRANCH  49  50
BRANCH  49  65
ATOM     65  CB  VAL A   7      10.066   4.065  23.938  0.00  0.00    +0.012 C 
ATOM     66  CG2 VAL A   7      11.502   4.018  23.398  0.00  0.00    +0.009 C 
ATOM     67  CG1 VAL A   7       9.792   5.489  24.439  0.00  0.00    +0.009 C 
ENDBRANCH  49  65
ENDBRANCH  47  49
ENDBRANCH  43  45
ENDBRANCH  40  43
ENDBRANCH  38  39
BRANCH  38  68
ATOM     68  CB  SER A   5       6.501   3.467  27.477  0.00  0.00    +0.187 C 
BRANCH  68  69
ATOM     69  OG  SER A   5       7.490   2.613  26.901  0.00  0.00    -0.393 OA
ATOM     70  H   SER A   5       7.803   3.054  26.091  0.00  0.00    +0.209 HD
ENDBRANCH  68  69
ENDBRANCH  38  68
ENDBRANCH  36  38
ENDBRANCH   1  34
BRANCH   1  71
ATOM     71  CB  GLN A   4       4.043  -1.405  29.106  0.00  0.00    +0.041 C 
BRANCH  71  72
ATOM     72  CG  GLN A   4       2.739  -2.060  29.560  0.00  0.00    +0.098 C 
BRANCH  72  73
ATOM     73  CD  GLN A   4       2.880  -3.519  29.939  0.00  0.00    +0.211 C 
ATOM     74  OE1 GLN A   4       3.912  -4.153  29.743  0.00  0.00    -0.276 OA
ATOM     75  NE2 GLN A   4       1.771  -4.142  30.420  0.00  0.00    -0.329 N 
ATOM     76 HE21 GLN A   4       0.938  -3.656  30.718  0.00  0.00    +0.145 HD
ATOM     77 HE22 GLN A   4       1.878  -5.109  30.699  0.00  0.00    +0.145 HD
ENDBRANCH  72  73
ENDBRANCH  71  72
ENDBRANCH   1  71
TORSDOF 32
ENDMDL
MODEL 16
REMARK VINA RESULT:      -5.1      2.186      7.140
REMARK  Name = VTFQSAVK-mmff94.pdb
REMARK  38 active torsions:
REMARK  status: ('A' for Active; 'I' for Inactive)
REMARK    1  A    between atoms: _1  and  _2
REMARK    2  A    between atoms: _2  and  _3
REMARK    3  A    between atoms: _2  and  _5
REMARK    4  A    between atoms: _5  and  _6
REMARK    5  A    between atoms: _5  and  _7
REMARK    6  A    between atoms: _17  and  _18
REMARK    7  A    between atoms: _18  and  _19
REMARK    8  A    between atoms: _18  and  _21
REMARK    9  A    between atoms: _21  and  _22
REMARK   10  A    between atoms: _21  and  _23
REMARK   11  A    between atoms: _31  and  _32
REMARK   12  A    between atoms: _32  and  _33
REMARK   13  A    between atoms: _32  and  _35
REMARK   14  A    between atoms: _35  and  _36
REMARK   15  A    between atoms: _51  and  _52
REMARK   16  A    between atoms: _52  and  _53
REMARK   17  A    between atoms: _52  and  _55
REMARK   18  A    between atoms: _55  and  _56
REMARK   19  A    between atoms: _56  and  _57
REMARK   20  A    between atoms: _68  and  _69
REMARK   21  A    between atoms: _69  and  _70
REMARK   22  A    between atoms: _69  and  _72
REMARK   23  A    between atoms: _72  and  _73
REMARK   24  A    between atoms: _79  and  _80
REMARK   25  A    between atoms: _80  and  _81
REMARK   26  A    between atoms: _80  and  _83
REMARK   27  A    between atoms: _89  and  _90
REMARK   28  A    between atoms: _90  and  _91
REMARK   29  A    between atoms: _90  and  _93
REMARK   30  A    between atoms: _93  and  _94
REMARK   31  A    between atoms: _93  and  _95
REMARK   32  A    between atoms: _105  and  _106
REMARK   33  A    between atoms: _106  and  _107
REMARK   34  A    between atoms: _106  and  _109
REMARK   35  A    between atoms: _109  and  _110
REMARK   36  A    between atoms: _110  and  _111
REMARK   37  A    between atoms: _111  and  _112
REMARK   38  A    between atoms: _112  and  _113
REMARK                            x       y       z     vdW  Elec       q    Type
REMARK                         _______ _______ _______ _____ _____    ______ ____
ROOT
ATOM      1  CA  GLN A   4       6.343   2.207  21.154  0.00  0.00    +0.159 C 
ENDROOT
BRANCH   1   4
ATOM      2  C   PHE A   3       7.941   0.629  22.233  0.00  0.00    +0.234 C 
ATOM      3  O   PHE A   3       8.688   0.620  21.255  0.00  0.00    -0.274 OA
ATOM      4  N   GLN A   4       6.791   1.379  22.275  0.00  0.00    -0.302 N 
ATOM      5  H   GLN A   4       6.163   1.318  23.074  0.00  0.00    +0.150 HD
BRANCH   2   6
ATOM      6  CA  PHE A   3       8.256  -0.154  23.522  0.00  0.00    +0.163 C 
BRANCH   6   8
ATOM      7  C   THR A   2       7.208  -2.267  22.729  0.00  0.00    +0.236 C 
ATOM      8  N   PHE A   3       8.308  -1.573  23.172  0.00  0.00    -0.302 N 
ATOM      9  H   PHE A   3       9.226  -2.008  23.163  0.00  0.00    +0.150 HD
ATOM     10  O   THR A   2       6.097  -1.754  22.599  0.00  0.00    -0.274 OA
BRANCH   7  11
ATOM     11  CA  THR A   2       7.477  -3.731  22.348  0.00  0.00    +0.187 C 
BRANCH  11  14
ATOM     12  C   VAL A   1       8.826  -4.443  24.312  0.00  0.00    +0.231 C 
ATOM     13  O   VAL A   1       9.788  -3.737  24.010  0.00  0.00    -0.274 OA
ATOM     14  N   THR A   2       7.651  -4.468  23.602  0.00  0.00    -0.301 N 
ATOM     15  H   THR A   2       6.863  -5.015  23.929  0.00  0.00    +0.150 HD
BRANCH  12  16
ATOM     16  CA  VAL A   1       8.864  -5.415  25.516  0.00  0.00    +0.140 C 
BRANCH  16  17
ATOM     17  N   VAL A   1      10.274  -5.810  25.730  0.00  0.00    -0.320 NA
ATOM     18  H1  VAL A   1      10.850  -4.993  25.503  0.00  0.00    +0.119 HD
ATOM     19  H2  VAL A   1      10.525  -6.494  25.013  0.00  0.00    +0.119 HD
ENDBRANCH  16  17
BRANCH  16  20
ATOM     20  CB  VAL A   1       8.268  -4.752  26.779  0.00  0.00    +0.009 C 
ATOM     21  CG2 VAL A   1       8.036  -3.254  26.556  0.00  0.00    +0.009 C 
ATOM     22  CG1 VAL A   1       6.944  -5.403  27.197  0.00  0.00    +0.009 C 
ENDBRANCH  16  20
ENDBRANCH  12  16
ENDBRANCH  11  14
BRANCH  11  23
ATOM     23  CB  THR A   2       6.276  -4.283  21.547  0.00  0.00    +0.141 C 
ATOM     24  CG2 THR A   2       6.438  -5.755  21.179  0.00  0.00    +0.040 C 
BRANCH  23  25
ATOM     25  OG1 THR A   2       5.071  -4.154  22.313  0.00  0.00    -0.390 OA
ATOM     26  HG1 THR A   2       5.258  -3.576  23.072  0.00  0.00    +0.210 HD
ENDBRANCH  23  25
ENDBRANCH  11  23
ENDBRANCH   7  11
ENDBRANCH   6   8
BRANCH   6  27
ATOM     27  CB  PHE A   3       9.589   0.353  24.094  0.00  0.00    +0.067 C 
BRANCH  27  28
ATOM     28  CG  PHE A   3       9.732   1.857  24.098  0.00  0.00    -0.045 A 
ATOM     29  CD2 PHE A   3       8.777   2.657  24.741  0.00  0.00    +0.004 A 
ATOM     30  CE2 PHE A   3       8.913   4.046  24.757  0.00  0.00    +0.000 A 
ATOM     31  CZ  PHE A   3       9.997   4.650  24.125  0.00  0.00    +0.000 A 
ATOM     32  CE1 PHE A   3      10.950   3.865  23.480  0.00  0.00    +0.000 A 
ATOM     33  CD1 PHE A   3      10.821   2.475  23.468  0.00  0.00    +0.004 A 
ENDBRANCH  27  28
ENDBRANCH   6  27
ENDBRANCH   2   6
ENDBRANCH   1   4
BRANCH   1  34
ATOM     34  C   GLN A   4       5.720   3.471  21.777  0.00  0.00    +0.234 C 
ATOM     35  O   GLN A   4       6.407   4.341  22.314  0.00  0.00    -0.274 OA
ATOM     36  N   SER A   5       4.352   3.542  21.735  0.00  0.00    -0.301 N 
ATOM     37  H   SER A   5       3.792   2.802  21.314  0.00  0.00    +0.150 HD
BRANCH  36  38
ATOM     38  CA  SER A   5       3.602   4.584  22.441  0.00  0.00    +0.184 C 
BRANCH  38  39
ATOM     39  C   SER A   5       3.214   4.026  23.821  0.00  0.00    +0.236 C 
ATOM     40  N   ALA A   6       3.465   4.852  24.888  0.00  0.00    -0.303 N 
ATOM     41  H   ALA A   6       3.894   5.765  24.759  0.00  0.00    +0.149 HD
ATOM     42  O   SER A   5       2.727   2.900  23.950  0.00  0.00    -0.274 OA
BRANCH  40  43
ATOM     43  CA  ALA A   6       3.063   4.512  26.248  0.00  0.00    +0.156 C 
ATOM     44  CB  ALA A   6       1.564   4.276  26.360  0.00  0.00    +0.038 C 
BRANCH  43  45
ATOM     45  C   ALA A   6       3.820   3.235  26.651  0.00  0.00    +0.234 C 
ATOM     46  O   ALA A   6       3.286   2.342  27.310  0.00  0.00    -0.274 OA
ATOM     47  N   VAL A   7       5.130   3.183  26.244  0.00  0.00    -0.302 N 
ATOM     48  H   VAL A   7       5.530   3.948  25.706  0.00  0.00    +0.150 HD
BRANCH  47  49
ATOM     49  CA  VAL A   7       6.006   2.040  26.508  0.00  0.00    +0.161 C 
BRANCH  49  50
ATOM     50  C   VAL A   7       5.272   0.819  25.904  0.00  0.00    +0.234 C 
ATOM     51  N   LYS A   8       4.704  -0.038  26.815  0.00  0.00    -0.304 N 
ATOM     52  H   LYS A   8       4.826   0.120  27.814  0.00  0.00    +0.149 HD
ATOM     53  O   VAL A   7       5.164   0.643  24.689  0.00  0.00    -0.274 OA
BRANCH  51  54
ATOM     54  CA  LYS A   8       3.831  -1.133  26.414  0.00  0.00    +0.136 C 
BRANCH  54  55
ATOM     55  C   LYS A   8       2.550  -0.992  27.223  0.00  0.00    +0.245 C 
ATOM     56  O   LYS A   8       1.455  -1.391  26.830  0.00  0.00    -0.299 OA
ENDBRANCH  54  55
BRANCH  54  57
ATOM     57  CB  LYS A   8       4.492  -2.495  26.664  0.00  0.00    +0.030 C 
BRANCH  57  58
ATOM     58  CG  LYS A   8       4.456  -3.414  25.437  0.00  0.00    +0.007 C 
BRANCH  58  59
ATOM     59  CD  LYS A   8       3.150  -4.215  25.382  0.00  0.00    +0.051 C 
BRANCH  59  60
ATOM     60  CE  LYS A   8       3.416  -5.715  25.407  0.00  0.00    +0.127 C 
BRANCH  60  61
ATOM     61  NZ  LYS A   8       4.599  -6.016  24.566  0.00  0.00    +0.219 N 
ATOM     62  HZ1 LYS A   8       5.477  -5.903  25.090  0.00  0.00    +0.199 HD
ATOM     63  HZ2 LYS A   8       4.648  -5.384  23.755  0.00  0.00    +0.199 HD
ATOM     64  HZ3 LYS A   8       4.577  -6.978  24.201  0.00  0.00    +0.199 HD
ENDBRANCH  60  61
ENDBRANCH  59  60
ENDBRANCH  58  59
ENDBRANCH  57  58
ENDBRANCH  54  57
ENDBRANCH  51  54
ENDBRANCH  49  50
BRANCH  49  65
ATOM     65  CB  VAL A   7       6.268   1.849  28.026  0.00  0.00    +0.012 C 
ATOM     66  CG2 VAL A   7       7.375   0.825  28.308  0.00  0.00    +0.009 C 
ATOM     67  CG1 VAL A   7       6.647   3.163  28.720  0.00  0.00    +0.009 C 
ENDBRANCH  49  65
ENDBRANCH  47  49
ENDBRANCH  43  45
ENDBRANCH  40  43
ENDBRANCH  38  39
BRANCH  38  68
ATOM     68  CB  SER A   5       2.363   5.038  21.659  0.00  0.00    +0.187 C 
BRANCH  68  69
ATOM     69  OG  SER A   5       2.433   4.645  20.288  0.00  0.00    -0.393 OA
ATOM     70  H   SER A   5       1.629   4.126  20.104  0.00  0.00    +0.209 HD
ENDBRANCH  68  69
ENDBRANCH  38  68
ENDBRANCH  36  38
ENDBRANCH   1  34
BRANCH   1  71
ATOM     71  CB  GLN A   4       5.321   1.444  20.295  0.00  0.00    +0.041 C 
BRANCH  71  72
ATOM     72  CG  GLN A   4       5.848   1.058  18.914  0.00  0.00    +0.098 C 
BRANCH  72  73
ATOM     73  CD  GLN A   4       5.938  -0.436  18.682  0.00  0.00    +0.211 C 
ATOM     74  OE1 GLN A   4       6.268  -0.916  17.603  0.00  0.00    -0.276 OA
ATOM     75  NE2 GLN A   4       5.535  -1.244  19.700  0.00  0.00    -0.329 N 
ATOM     76 HE21 GLN A   4       5.372  -0.922  20.642  0.00  0.00    +0.145 HD
ATOM     77 HE22 GLN A   4       5.625  -2.241  19.550  0.00  0.00    +0.145 HD
ENDBRANCH  72  73
ENDBRANCH  71  72
ENDBRANCH   1  71
TORSDOF 32
ENDMDL
MODEL 17
REMARK VINA RESULT:      -5.1      2.333      9.515
REMARK  Name = VTFQSAVK-mmff94.pdb
REMARK  38 active torsions:
REMARK  status: ('A' for Active; 'I' for Inactive)
REMARK    1  A    between atoms: _1  and  _2
REMARK    2  A    between atoms: _2  and  _3
REMARK    3  A    between atoms: _2  and  _5
REMARK    4  A    between atoms: _5  and  _6
REMARK    5  A    between atoms: _5  and  _7
REMARK    6  A    between atoms: _17  and  _18
REMARK    7  A    between atoms: _18  and  _19
REMARK    8  A    between atoms: _18  and  _21
REMARK    9  A    between atoms: _21  and  _22
REMARK   10  A    between atoms: _21  and  _23
REMARK   11  A    between atoms: _31  and  _32
REMARK   12  A    between atoms: _32  and  _33
REMARK   13  A    between atoms: _32  and  _35
REMARK   14  A    between atoms: _35  and  _36
REMARK   15  A    between atoms: _51  and  _52
REMARK   16  A    between atoms: _52  and  _53
REMARK   17  A    between atoms: _52  and  _55
REMARK   18  A    between atoms: _55  and  _56
REMARK   19  A    between atoms: _56  and  _57
REMARK   20  A    between atoms: _68  and  _69
REMARK   21  A    between atoms: _69  and  _70
REMARK   22  A    between atoms: _69  and  _72
REMARK   23  A    between atoms: _72  and  _73
REMARK   24  A    between atoms: _79  and  _80
REMARK   25  A    between atoms: _80  and  _81
REMARK   26  A    between atoms: _80  and  _83
REMARK   27  A    between atoms: _89  and  _90
REMARK   28  A    between atoms: _90  and  _91
REMARK   29  A    between atoms: _90  and  _93
REMARK   30  A    between atoms: _93  and  _94
REMARK   31  A    between atoms: _93  and  _95
REMARK   32  A    between atoms: _105  and  _106
REMARK   33  A    between atoms: _106  and  _107
REMARK   34  A    between atoms: _106  and  _109
REMARK   35  A    between atoms: _109  and  _110
REMARK   36  A    between atoms: _110  and  _111
REMARK   37  A    between atoms: _111  and  _112
REMARK   38  A    between atoms: _112  and  _113
REMARK                            x       y       z     vdW  Elec       q    Type
REMARK                         _______ _______ _______ _____ _____    ______ ____
ROOT
ATOM      1  CA  GLN A   4       7.627  -1.823  23.471  0.00  0.00    +0.159 C 
ENDROOT
BRANCH   1   4
ATOM      2  C   PHE A   3       6.851   0.204  24.695  0.00  0.00    +0.234 C 
ATOM      3  O   PHE A   3       5.694   0.079  24.293  0.00  0.00    -0.274 OA
ATOM      4  N   GLN A   4       7.848  -0.679  24.357  0.00  0.00    -0.302 N 
ATOM      5  H   GLN A   4       8.807  -0.515  24.656  0.00  0.00    +0.150 HD
BRANCH   2   6
ATOM      6  CA  PHE A   3       7.275   1.328  25.659  0.00  0.00    +0.163 C 
BRANCH   6   8
ATOM      7  C   THR A   2       8.464   2.861  24.102  0.00  0.00    +0.236 C 
ATOM      8  N   PHE A   3       7.372   2.561  24.880  0.00  0.00    -0.302 N 
ATOM      9  H   PHE A   3       6.544   3.149  24.848  0.00  0.00    +0.150 HD
ATOM     10  O   THR A   2       9.444   2.122  24.005  0.00  0.00    -0.274 OA
BRANCH   7  11
ATOM     11  CA  THR A   2       8.353   4.171  23.307  0.00  0.00    +0.187 C 
BRANCH  11  14
ATOM     12  C   VAL A   1       5.953   4.065  22.662  0.00  0.00    +0.231 C 
ATOM     13  O   VAL A   1       6.114   3.107  21.907  0.00  0.00    -0.274 OA
ATOM     14  N   THR A   2       6.961   4.614  23.417  0.00  0.00    -0.301 N 
ATOM     15  H   THR A   2       6.764   5.359  24.074  0.00  0.00    +0.150 HD
BRANCH  12  16
ATOM     16  CA  VAL A   1       4.589   4.781  22.804  0.00  0.00    +0.140 C 
BRANCH  16  17
ATOM     17  N   VAL A   1       3.669   4.198  21.802  0.00  0.00    -0.320 NA
ATOM     18  H1  VAL A   1       2.723   4.264  22.191  0.00  0.00    +0.119 HD
ATOM     19  H2  VAL A   1       3.846   3.192  21.756  0.00  0.00    +0.119 HD
ENDBRANCH  16  17
BRANCH  16  20
ATOM     20  CB  VAL A   1       4.031   4.624  24.237  0.00  0.00    +0.009 C 
ATOM     21  CG2 VAL A   1       2.763   5.462  24.430  0.00  0.00    +0.009 C 
ATOM     22  CG1 VAL A   1       3.716   3.161  24.571  0.00  0.00    +0.009 C 
ENDBRANCH  16  20
ENDBRANCH  12  16
ENDBRANCH  11  14
BRANCH  11  23
ATOM     23  CB  THR A   2       9.314   5.222  23.908  0.00  0.00    +0.141 C 
ATOM     24  CG2 THR A   2       8.989   5.558  25.360  0.00  0.00    +0.040 C 
BRANCH  23  25
ATOM     25  OG1 THR A   2      10.663   4.738  23.862  0.00  0.00    -0.390 OA
ATOM     26  HG1 THR A   2      10.823   4.214  24.664  0.00  0.00    +0.210 HD
ENDBRANCH  23  25
ENDBRANCH  11  23
ENDBRANCH   7  11
ENDBRANCH   6   8
BRANCH   6  27
ATOM     27  CB  PHE A   3       6.233   1.431  26.783  0.00  0.00    +0.067 C 
BRANCH  27  28
ATOM     28  CG  PHE A   3       6.501   2.531  27.783  0.00  0.00    -0.045 A 
ATOM     29  CD2 PHE A   3       6.957   2.221  29.072  0.00  0.00    +0.004 A 
ATOM     30  CE2 PHE A   3       7.218   3.235  29.994  0.00  0.00    +0.000 A 
ATOM     31  CZ  PHE A   3       7.019   4.568  29.642  0.00  0.00    +0.000 A 
ATOM     32  CE1 PHE A   3       6.562   4.888  28.364  0.00  0.00    +0.000 A 
ATOM     33  CD1 PHE A   3       6.308   3.876  27.438  0.00  0.00    +0.004 A 
ENDBRANCH  27  28
ENDBRANCH   6  27
ENDBRANCH   2   6
ENDBRANCH   1   4
BRANCH   1  34
ATOM     34  C   GLN A   4       8.314  -3.026  24.147  0.00  0.00    +0.234 C 
ATOM     35  O   GLN A   4       9.477  -3.341  23.892  0.00  0.00    -0.274 OA
ATOM     36  N   SER A   5       7.533  -3.747  25.013  0.00  0.00    -0.301 N 
ATOM     37  H   SER A   5       6.563  -3.494  25.192  0.00  0.00    +0.150 HD
BRANCH  36  38
ATOM     38  CA  SER A   5       7.978  -5.017  25.592  0.00  0.00    +0.184 C 
BRANCH  38  39
ATOM     39  C   SER A   5       6.782  -5.636  26.336  0.00  0.00    +0.236 C 
ATOM     40  N   ALA A   6       6.861  -5.620  27.706  0.00  0.00    -0.303 N 
ATOM     41  H   ALA A   6       7.672  -5.234  28.183  0.00  0.00    +0.149 HD
ATOM     42  O   SER A   5       5.828  -6.129  25.729  0.00  0.00    -0.274 OA
BRANCH  40  43
ATOM     43  CA  ALA A   6       5.767  -6.075  28.555  0.00  0.00    +0.156 C 
ATOM     44  CB  ALA A   6       6.252  -6.506  29.932  0.00  0.00    +0.038 C 
BRANCH  43  45
ATOM     45  C   ALA A   6       4.773  -4.910  28.698  0.00  0.00    +0.234 C 
ATOM     46  O   ALA A   6       4.283  -4.601  29.785  0.00  0.00    -0.274 OA
ATOM     47  N   VAL A   7       4.460  -4.266  27.527  0.00  0.00    -0.302 N 
ATOM     48  H   VAL A   7       4.886  -4.560  26.651  0.00  0.00    +0.150 HD
BRANCH  47  49
ATOM     49  CA  VAL A   7       3.554  -3.118  27.461  0.00  0.00    +0.161 C 
BRANCH  49  50
ATOM     50  C   VAL A   7       2.831  -3.250  26.099  0.00  0.00    +0.234 C 
ATOM     51  N   LYS A   8       3.267  -4.276  25.296  0.00  0.00    -0.304 N 
ATOM     52  H   LYS A   8       4.053  -4.856  25.585  0.00  0.00    +0.149 HD
ATOM     53  O   VAL A   7       1.899  -2.515  25.768  0.00  0.00    -0.274 OA
BRANCH  51  54
ATOM     54  CA  LYS A   8       2.580  -4.647  24.067  0.00  0.00    +0.136 C 
BRANCH  54  55
ATOM     55  C   LYS A   8       1.605  -5.758  24.427  0.00  0.00    +0.245 C 
ATOM     56  O   LYS A   8       1.929  -6.941  24.514  0.00  0.00    -0.299 OA
ENDBRANCH  54  55
BRANCH  54  57
ATOM     57  CB  LYS A   8       3.570  -5.111  22.991  0.00  0.00    +0.030 C 
BRANCH  57  58
ATOM     58  CG  LYS A   8       4.861  -4.286  22.966  0.00  0.00    +0.007 C 
BRANCH  58  59
ATOM     59  CD  LYS A   8       5.639  -4.510  21.665  0.00  0.00    +0.051 C 
BRANCH  59  60
ATOM     60  CE  LYS A   8       6.865  -5.386  21.892  0.00  0.00    +0.127 C 
BRANCH  60  61
ATOM     61  NZ  LYS A   8       6.437  -6.800  22.023  0.00  0.00    +0.219 N 
ATOM     62  HZ1 LYS A   8       7.161  -7.377  22.470  0.00  0.00    +0.199 HD
ATOM     63  HZ2 LYS A   8       6.243  -7.216  21.101  0.00  0.00    +0.199 HD
ATOM     64  HZ3 LYS A   8       5.578  -6.891  22.583  0.00  0.00    +0.199 HD
ENDBRANCH  60  61
ENDBRANCH  59  60
ENDBRANCH  58  59
ENDBRANCH  57  58
ENDBRANCH  54  57
ENDBRANCH  51  54
ENDBRANCH  49  50
BRANCH  49  65
ATOM     65  CB  VAL A   7       4.318  -1.771  27.567  0.00  0.00    +0.012 C 
ATOM     66  CG2 VAL A   7       4.149  -1.104  28.938  0.00  0.00    +0.009 C 
ATOM     67  CG1 VAL A   7       5.820  -1.932  27.298  0.00  0.00    +0.009 C 
ENDBRANCH  49  65
ENDBRANCH  47  49
ENDBRANCH  43  45
ENDBRANCH  40  43
ENDBRANCH  38  39
BRANCH  38  68
ATOM     68  CB  SER A   5       9.180  -4.838  26.529  0.00  0.00    +0.187 C 
BRANCH  68  69
ATOM     69  OG  SER A   5      10.370  -5.395  25.971  0.00  0.00    -0.393 OA
ATOM     70  H   SER A   5      10.162  -5.636  25.051  0.00  0.00    +0.209 HD
ENDBRANCH  68  69
ENDBRANCH  38  68
ENDBRANCH  36  38
ENDBRANCH   1  34
BRANCH   1  71
ATOM     71  CB  GLN A   4       8.218  -1.550  22.079  0.00  0.00    +0.041 C 
BRANCH  71  72
ATOM     72  CG  GLN A   4       7.223  -0.926  21.101  0.00  0.00    +0.098 C 
BRANCH  72  73
ATOM     73  CD  GLN A   4       7.792   0.214  20.283  0.00  0.00    +0.211 C 
ATOM     74  OE1 GLN A   4       7.755   0.227  19.057  0.00  0.00    -0.276 OA
ATOM     75  NE2 GLN A   4       8.448   1.193  20.961  0.00  0.00    -0.329 N 
ATOM     76 HE21 GLN A   4       8.409   1.307  21.963  0.00  0.00    +0.145 HD
ATOM     77 HE22 GLN A   4       8.802   1.967  20.412  0.00  0.00    +0.145 HD
ENDBRANCH  72  73
ENDBRANCH  71  72
ENDBRANCH   1  71
TORSDOF 32
ENDMDL
MODEL 18
REMARK VINA RESULT:      -5.0      1.908      7.473
REMARK  Name = VTFQSAVK-mmff94.pdb
REMARK  38 active torsions:
REMARK  status: ('A' for Active; 'I' for Inactive)
REMARK    1  A    between atoms: _1  and  _2
REMARK    2  A    between atoms: _2  and  _3
REMARK    3  A    between atoms: _2  and  _5
REMARK    4  A    between atoms: _5  and  _6
REMARK    5  A    between atoms: _5  and  _7
REMARK    6  A    between atoms: _17  and  _18
REMARK    7  A    between atoms: _18  and  _19
REMARK    8  A    between atoms: _18  and  _21
REMARK    9  A    between atoms: _21  and  _22
REMARK   10  A    between atoms: _21  and  _23
REMARK   11  A    between atoms: _31  and  _32
REMARK   12  A    between atoms: _32  and  _33
REMARK   13  A    between atoms: _32  and  _35
REMARK   14  A    between atoms: _35  and  _36
REMARK   15  A    between atoms: _51  and  _52
REMARK   16  A    between atoms: _52  and  _53
REMARK   17  A    between atoms: _52  and  _55
REMARK   18  A    between atoms: _55  and  _56
REMARK   19  A    between atoms: _56  and  _57
REMARK   20  A    between atoms: _68  and  _69
REMARK   21  A    between atoms: _69  and  _70
REMARK   22  A    between atoms: _69  and  _72
REMARK   23  A    between atoms: _72  and  _73
REMARK   24  A    between atoms: _79  and  _80
REMARK   25  A    between atoms: _80  and  _81
REMARK   26  A    between atoms: _80  and  _83
REMARK   27  A    between atoms: _89  and  _90
REMARK   28  A    between atoms: _90  and  _91
REMARK   29  A    between atoms: _90  and  _93
REMARK   30  A    between atoms: _93  and  _94
REMARK   31  A    between atoms: _93  and  _95
REMARK   32  A    between atoms: _105  and  _106
REMARK   33  A    between atoms: _106  and  _107
REMARK   34  A    between atoms: _106  and  _109
REMARK   35  A    between atoms: _109  and  _110
REMARK   36  A    between atoms: _110  and  _111
REMARK   37  A    between atoms: _111  and  _112
REMARK   38  A    between atoms: _112  and  _113
REMARK                            x       y       z     vdW  Elec       q    Type
REMARK                         _______ _______ _______ _____ _____    ______ ____
ROOT
ATOM      1  CA  GLN A   4       7.209   2.110  21.264  0.00  0.00    +0.159 C 
ENDROOT
BRANCH   1   4
ATOM      2  C   PHE A   3       7.389   1.418  23.651  0.00  0.00    +0.234 C 
ATOM      3  O   PHE A   3       6.167   1.352  23.787  0.00  0.00    -0.274 OA
ATOM      4  N   GLN A   4       7.980   1.764  22.460  0.00  0.00    -0.302 N 
ATOM      5  H   GLN A   4       8.990   1.868  22.395  0.00  0.00    +0.150 HD
BRANCH   2   6
ATOM      6  CA  PHE A   3       8.369   1.062  24.785  0.00  0.00    +0.163 C 
BRANCH   6   8
ATOM      7  C   THR A   2       8.348  -1.367  24.245  0.00  0.00    +0.236 C 
ATOM      8  N   PHE A   3       8.144  -0.340  25.135  0.00  0.00    -0.302 N 
ATOM      9  H   PHE A   3       7.933  -0.541  26.108  0.00  0.00    +0.150 HD
ATOM     10  O   THR A   2       8.729  -1.188  23.088  0.00  0.00    -0.274 OA
BRANCH   7  11
ATOM     11  CA  THR A   2       8.123  -2.774  24.817  0.00  0.00    +0.187 C 
BRANCH  11  14
ATOM     12  C   VAL A   1       6.034  -3.121  23.513  0.00  0.00    +0.231 C 
ATOM     13  O   VAL A   1       5.501  -2.098  23.938  0.00  0.00    -0.274 OA
ATOM     14  N   THR A   2       7.313  -3.503  23.839  0.00  0.00    -0.301 N 
ATOM     15  H   THR A   2       7.732  -4.320  23.410  0.00  0.00    +0.150 HD
BRANCH  12  16
ATOM     16  CA  VAL A   1       5.290  -4.114  22.587  0.00  0.00    +0.140 C 
BRANCH  16  17
ATOM     17  N   VAL A   1       5.572  -3.719  21.188  0.00  0.00    -0.320 NA
ATOM     18  H1  VAL A   1       6.121  -2.854  21.227  0.00  0.00    +0.119 HD
ATOM     19  H2  VAL A   1       4.692  -3.433  20.755  0.00  0.00    +0.119 HD
ENDBRANCH  16  17
BRANCH  16  20
ATOM     20  CB  VAL A   1       5.739  -5.567  22.863  0.00  0.00    +0.009 C 
ATOM     21  CG2 VAL A   1       4.546  -6.447  23.251  0.00  0.00    +0.009 C 
ATOM     22  CG1 VAL A   1       6.442  -6.189  21.650  0.00  0.00    +0.009 C 
ENDBRANCH  16  20
ENDBRANCH  12  16
ENDBRANCH  11  14
BRANCH  11  23
ATOM     23  CB  THR A   2       9.488  -3.470  25.029  0.00  0.00    +0.141 C 
ATOM     24  CG2 THR A   2       9.362  -4.982  25.179  0.00  0.00    +0.040 C 
BRANCH  23  25
ATOM     25  OG1 THR A   2      10.350  -3.209  23.915  0.00  0.00    -0.390 OA
ATOM     26  HG1 THR A   2       9.987  -3.668  23.139  0.00  0.00    +0.210 HD
ENDBRANCH  23  25
ENDBRANCH  11  23
ENDBRANCH   7  11
ENDBRANCH   6   8
BRANCH   6  27
ATOM     27  CB  PHE A   3       9.802   1.317  24.296  0.00  0.00    +0.067 C 
BRANCH  27  28
ATOM     28  CG  PHE A   3      10.142   2.775  24.097  0.00  0.00    -0.045 A 
ATOM     29  CD2 PHE A   3       9.271   3.773  24.555  0.00  0.00    +0.004 A 
ATOM     30  CE2 PHE A   3       9.588   5.122  24.384  0.00  0.00    +0.000 A 
ATOM     31  CZ  PHE A   3      10.771   5.487  23.748  0.00  0.00    +0.000 A 
ATOM     32  CE1 PHE A   3      11.643   4.502  23.285  0.00  0.00    +0.000 A 
ATOM     33  CD1 PHE A   3      11.333   3.153  23.462  0.00  0.00    +0.004 A 
ENDBRANCH  27  28
ENDBRANCH   6  27
ENDBRANCH   2   6
ENDBRANCH   1   4
BRANCH   1  34
ATOM     34  C   GLN A   4       6.228   3.220  21.693  0.00  0.00    +0.234 C 
ATOM     35  O   GLN A   4       6.619   4.310  22.111  0.00  0.00    -0.274 OA
ATOM     36  N   SER A   5       4.898   2.896  21.623  0.00  0.00    -0.301 N 
ATOM     37  H   SER A   5       4.588   1.980  21.303  0.00  0.00    +0.150 HD
BRANCH  36  38
ATOM     38  CA  SER A   5       3.853   3.770  22.164  0.00  0.00    +0.184 C 
BRANCH  38  39
ATOM     39  C   SER A   5       3.753   3.498  23.675  0.00  0.00    +0.236 C 
ATOM     40  N   ALA A   6       4.363   4.421  24.486  0.00  0.00    -0.303 N 
ATOM     41  H   ALA A   6       4.858   5.220  24.097  0.00  0.00    +0.149 HD
ATOM     42  O   SER A   5       3.177   2.501  24.116  0.00  0.00    -0.274 OA
BRANCH  40  43
ATOM     43  CA  ALA A   6       4.274   4.361  25.940  0.00  0.00    +0.156 C 
ATOM     44  CB  ALA A   6       2.885   3.950  26.411  0.00  0.00    +0.038 C 
BRANCH  43  45
ATOM     45  C   ALA A   6       5.310   3.335  26.428  0.00  0.00    +0.234 C 
ATOM     46  O   ALA A   6       6.519   3.573  26.412  0.00  0.00    -0.274 OA
ATOM     47  N   VAL A   7       4.789   2.139  26.852  0.00  0.00    -0.302 N 
ATOM     48  H   VAL A   7       3.783   1.986  26.842  0.00  0.00    +0.150 HD
BRANCH  47  49
ATOM     49  CA  VAL A   7       5.612   1.047  27.377  0.00  0.00    +0.161 C 
BRANCH  49  50
ATOM     50  C   VAL A   7       4.889  -0.250  26.942  0.00  0.00    +0.234 C 
ATOM     51  N   LYS A   8       5.321  -1.401  27.556  0.00  0.00    -0.304 N 
ATOM     52  H   LYS A   8       6.105  -1.373  28.206  0.00  0.00    +0.149 HD
ATOM     53  O   VAL A   7       3.960  -0.253  26.132  0.00  0.00    -0.274 OA
BRANCH  51  54
ATOM     54  CA  LYS A   8       4.634  -2.674  27.393  0.00  0.00    +0.136 C 
BRANCH  54  55
ATOM     55  C   LYS A   8       3.671  -2.806  28.564  0.00  0.00    +0.245 C 
ATOM     56  O   LYS A   8       4.037  -2.996  29.722  0.00  0.00    -0.299 OA
ENDBRANCH  54  55
BRANCH  54  57
ATOM     57  CB  LYS A   8       5.624  -3.845  27.362  0.00  0.00    +0.030 C 
BRANCH  57  58
ATOM     58  CG  LYS A   8       5.178  -4.985  26.438  0.00  0.00    +0.007 C 
BRANCH  58  59
ATOM     59  CD  LYS A   8       5.490  -6.353  27.054  0.00  0.00    +0.051 C 
BRANCH  59  60
ATOM     60  CE  LYS A   8       5.402  -6.313  28.574  0.00  0.00    +0.127 C 
BRANCH  60  61
ATOM     61  NZ  LYS A   8       4.426  -7.330  29.034  0.00  0.00    +0.219 N 
ATOM     62  HZ1 LYS A   8       3.769  -7.592  28.287  0.00  0.00    +0.199 HD
ATOM     63  HZ2 LYS A   8       3.864  -6.976  29.821  0.00  0.00    +0.199 HD
ATOM     64  HZ3 LYS A   8       4.890  -8.190  29.355  0.00  0.00    +0.199 HD
ENDBRANCH  60  61
ENDBRANCH  59  60
ENDBRANCH  58  59
ENDBRANCH  57  58
ENDBRANCH  54  57
ENDBRANCH  51  54
ENDBRANCH  49  50
BRANCH  49  65
ATOM     65  CB  VAL A   7       5.759   1.123  28.920  0.00  0.00    +0.012 C 
ATOM     66  CG2 VAL A   7       7.074   1.783  29.355  0.00  0.00    +0.009 C 
ATOM     67  CG1 VAL A   7       4.603   1.887  29.578  0.00  0.00    +0.009 C 
ENDBRANCH  49  65
ENDBRANCH  47  49
ENDBRANCH  43  45
ENDBRANCH  40  43
ENDBRANCH  38  39
BRANCH  38  68
ATOM     68  CB  SER A   5       2.501   3.553  21.472  0.00  0.00    +0.187 C 
BRANCH  68  69
ATOM     69  OG  SER A   5       2.561   3.886  20.084  0.00  0.00    -0.393 OA
ATOM     70  H   SER A   5       1.804   3.446  19.658  0.00  0.00    +0.209 HD
ENDBRANCH  68  69
ENDBRANCH  38  68
ENDBRANCH  36  38
ENDBRANCH   1  34
BRANCH   1  71
ATOM     71  CB  GLN A   4       6.461   0.879  20.729  0.00  0.00    +0.041 C 
BRANCH  71  72
ATOM     72  CG  GLN A   4       7.113   0.252  19.497  0.00  0.00    +0.098 C 
BRANCH  72  73
ATOM     73  CD  GLN A   4       6.148  -0.490  18.598  0.00  0.00    +0.211 C 
ATOM     74  OE1 GLN A   4       5.866  -0.099  17.469  0.00  0.00    -0.276 OA
ATOM     75  NE2 GLN A   4       5.514  -1.570  19.129  0.00  0.00    -0.329 N 
ATOM     76 HE21 GLN A   4       5.786  -2.012  19.994  0.00  0.00    +0.145 HD
ATOM     77 HE22 GLN A   4       4.892  -2.079  18.514  0.00  0.00    +0.145 HD
ENDBRANCH  72  73
ENDBRANCH  71  72
ENDBRANCH   1  71
TORSDOF 32
ENDMDL
MODEL 19
REMARK VINA RESULT:      -5.0      2.198      8.570
REMARK  Name = VTFQSAVK-mmff94.pdb
REMARK  38 active torsions:
REMARK  status: ('A' for Active; 'I' for Inactive)
REMARK    1  A    between atoms: _1  and  _2
REMARK    2  A    between atoms: _2  and  _3
REMARK    3  A    between atoms: _2  and  _5
REMARK    4  A    between atoms: _5  and  _6
REMARK    5  A    between atoms: _5  and  _7
REMARK    6  A    between atoms: _17  and  _18
REMARK    7  A    between atoms: _18  and  _19
REMARK    8  A    between atoms: _18  and  _21
REMARK    9  A    between atoms: _21  and  _22
REMARK   10  A    between atoms: _21  and  _23
REMARK   11  A    between atoms: _31  and  _32
REMARK   12  A    between atoms: _32  and  _33
REMARK   13  A    between atoms: _32  and  _35
REMARK   14  A    between atoms: _35  and  _36
REMARK   15  A    between atoms: _51  and  _52
REMARK   16  A    between atoms: _52  and  _53
REMARK   17  A    between atoms: _52  and  _55
REMARK   18  A    between atoms: _55  and  _56
REMARK   19  A    between atoms: _56  and  _57
REMARK   20  A    between atoms: _68  and  _69
REMARK   21  A    between atoms: _69  and  _70
REMARK   22  A    between atoms: _69  and  _72
REMARK   23  A    between atoms: _72  and  _73
REMARK   24  A    between atoms: _79  and  _80
REMARK   25  A    between atoms: _80  and  _81
REMARK   26  A    between atoms: _80  and  _83
REMARK   27  A    between atoms: _89  and  _90
REMARK   28  A    between atoms: _90  and  _91
REMARK   29  A    between atoms: _90  and  _93
REMARK   30  A    between atoms: _93  and  _94
REMARK   31  A    between atoms: _93  and  _95
REMARK   32  A    between atoms: _105  and  _106
REMARK   33  A    between atoms: _106  and  _107
REMARK   34  A    between atoms: _106  and  _109
REMARK   35  A    between atoms: _109  and  _110
REMARK   36  A    between atoms: _110  and  _111
REMARK   37  A    between atoms: _111  and  _112
REMARK   38  A    between atoms: _112  and  _113
REMARK                            x       y       z     vdW  Elec       q    Type
REMARK                         _______ _______ _______ _____ _____    ______ ____
ROOT
ATOM      1  CA  GLN A   4       5.438   3.247  21.889  0.00  0.00    +0.159 C 
ENDROOT
BRANCH   1   4
ATOM      2  C   PHE A   3       3.963   3.101  23.892  0.00  0.00    +0.234 C 
ATOM      3  O   PHE A   3       3.352   4.127  23.592  0.00  0.00    -0.274 OA
ATOM      4  N   GLN A   4       4.979   2.595  23.117  0.00  0.00    -0.302 N 
ATOM      5  H   GLN A   4       5.505   1.780  23.422  0.00  0.00    +0.150 HD
BRANCH   2   6
ATOM      6  CA  PHE A   3       3.606   2.258  25.131  0.00  0.00    +0.163 C 
BRANCH   6   8
ATOM      7  C   THR A   2       5.563   0.831  25.704  0.00  0.00    +0.236 C 
ATOM      8  N   PHE A   3       4.849   1.996  25.855  0.00  0.00    -0.302 N 
ATOM      9  H   PHE A   3       5.231   2.762  26.401  0.00  0.00    +0.150 HD
ATOM     10  O   THR A   2       5.211  -0.081  24.955  0.00  0.00    -0.274 OA
BRANCH   7  11
ATOM     11  CA  THR A   2       6.875   0.768  26.498  0.00  0.00    +0.187 C 
BRANCH  11  14
ATOM     12  C   VAL A   1       9.118   0.386  25.492  0.00  0.00    +0.231 C 
ATOM     13  O   VAL A   1       9.318  -0.646  26.131  0.00  0.00    -0.274 OA
ATOM     14  N   THR A   2       7.951   1.107  25.564  0.00  0.00    -0.301 N 
ATOM     15  H   THR A   2       7.807   1.914  24.967  0.00  0.00    +0.150 HD
BRANCH  12  16
ATOM     16  CA  VAL A   1      10.191   1.001  24.563  0.00  0.00    +0.140 C 
BRANCH  16  17
ATOM     17  N   VAL A   1      10.826  -0.107  23.816  0.00  0.00    -0.320 NA
ATOM     18  H1  VAL A   1      11.503  -0.545  24.450  0.00  0.00    +0.119 HD
ATOM     19  H2  VAL A   1      11.407   0.297  23.078  0.00  0.00    +0.119 HD
ENDBRANCH  16  17
BRANCH  16  20
ATOM     20  CB  VAL A   1       9.561   2.037  23.604  0.00  0.00    +0.009 C 
ATOM     21  CG2 VAL A   1      10.158   3.430  23.830  0.00  0.00    +0.009 C 
ATOM     22  CG1 VAL A   1       9.752   1.646  22.133  0.00  0.00    +0.009 C 
ENDBRANCH  16  20
ENDBRANCH  12  16
ENDBRANCH  11  14
BRANCH  11  23
ATOM     23  CB  THR A   2       6.821   1.781  27.666  0.00  0.00    +0.141 C 
ATOM     24  CG2 THR A   2       7.287   1.183  28.989  0.00  0.00    +0.040 C 
BRANCH  23  25
ATOM     25  OG1 THR A   2       7.656   2.910  27.376  0.00  0.00    -0.390 OA
ATOM     26  HG1 THR A   2       7.237   3.420  26.664  0.00  0.00    +0.210 HD
ENDBRANCH  23  25
ENDBRANCH  11  23
ENDBRANCH   7  11
ENDBRANCH   6   8
BRANCH   6  27
ATOM     27  CB  PHE A   3       2.591   3.036  25.981  0.00  0.00    +0.067 C 
BRANCH  27  28
ATOM     28  CG  PHE A   3       3.009   3.240  27.418  0.00  0.00    -0.045 A 
ATOM     29  CD2 PHE A   3       2.753   2.250  28.377  0.00  0.00    +0.004 A 
ATOM     30  CE2 PHE A   3       3.148   2.430  29.703  0.00  0.00    +0.000 A 
ATOM     31  CZ  PHE A   3       3.794   3.602  30.087  0.00  0.00    +0.000 A 
ATOM     32  CE1 PHE A   3       4.050   4.595  29.143  0.00  0.00    +0.000 A 
ATOM     33  CD1 PHE A   3       3.663   4.415  27.815  0.00  0.00    +0.004 A 
ENDBRANCH  27  28
ENDBRANCH   6  27
ENDBRANCH   2   6
ENDBRANCH   1   4
BRANCH   1  34
ATOM     34  C   GLN A   4       5.524   2.137  20.822  0.00  0.00    +0.234 C 
ATOM     35  O   GLN A   4       4.722   2.064  19.891  0.00  0.00    -0.274 OA
ATOM     36  N   SER A   5       6.520   1.214  21.004  0.00  0.00    -0.301 N 
ATOM     37  H   SER A   5       7.159   1.268  21.796  0.00  0.00    +0.150 HD
BRANCH  36  38
ATOM     38  CA  SER A   5       6.621   0.002  20.186  0.00  0.00    +0.184 C 
BRANCH  38  39
ATOM     39  C   SER A   5       7.232  -1.104  21.064  0.00  0.00    +0.236 C 
ATOM     40  N   ALA A   6       6.351  -1.774  21.876  0.00  0.00    -0.303 N 
ATOM     41  H   ALA A   6       5.364  -1.532  21.895  0.00  0.00    +0.149 HD
ATOM     42  O   SER A   5       8.440  -1.351  21.045  0.00  0.00    -0.274 OA
BRANCH  40  43
ATOM     43  CA  ALA A   6       6.755  -2.913  22.691  0.00  0.00    +0.156 C 
ATOM     44  CB  ALA A   6       7.361  -2.480  24.019  0.00  0.00    +0.038 C 
BRANCH  43  45
ATOM     45  C   ALA A   6       5.503  -3.768  22.948  0.00  0.00    +0.234 C 
ATOM     46  O   ALA A   6       4.973  -4.432  22.056  0.00  0.00    -0.274 OA
ATOM     47  N   VAL A   7       5.013  -3.712  24.229  0.00  0.00    -0.302 N 
ATOM     48  H   VAL A   7       5.481  -3.144  24.932  0.00  0.00    +0.150 HD
BRANCH  47  49
ATOM     49  CA  VAL A   7       3.846  -4.475  24.675  0.00  0.00    +0.161 C 
BRANCH  49  50
ATOM     50  C   VAL A   7       3.097  -3.536  25.651  0.00  0.00    +0.234 C 
ATOM     51  N   LYS A   8       3.657  -3.416  26.900  0.00  0.00    -0.304 N 
ATOM     52  H   LYS A   8       4.478  -3.965  27.150  0.00  0.00    +0.149 HD
ATOM     53  O   VAL A   7       2.090  -2.905  25.325  0.00  0.00    -0.274 OA
BRANCH  51  54
ATOM     54  CA  LYS A   8       3.182  -2.444  27.875  0.00  0.00    +0.136 C 
BRANCH  54  55
ATOM     55  C   LYS A   8       4.353  -1.522  28.182  0.00  0.00    +0.245 C 
ATOM     56  O   LYS A   8       4.456  -0.885  29.228  0.00  0.00    -0.299 OA
ENDBRANCH  54  55
BRANCH  54  57
ATOM     57  CB  LYS A   8       2.675  -3.131  29.149  0.00  0.00    +0.030 C 
BRANCH  57  58
ATOM     58  CG  LYS A   8       2.883  -4.650  29.136  0.00  0.00    +0.007 C 
BRANCH  58  59
ATOM     59  CD  LYS A   8       4.039  -5.060  30.054  0.00  0.00    +0.051 C 
BRANCH  59  60
ATOM     60  CE  LYS A   8       5.048  -5.936  29.322  0.00  0.00    +0.127 C 
BRANCH  60  61
ATOM     61  NZ  LYS A   8       4.445  -7.266  29.066  0.00  0.00    +0.219 N 
ATOM     62  HZ1 LYS A   8       4.860  -7.721  28.242  0.00  0.00    +0.199 HD
ATOM     63  HZ2 LYS A   8       3.433  -7.187  28.890  0.00  0.00    +0.199 HD
ATOM     64  HZ3 LYS A   8       4.565  -7.903  29.865  0.00  0.00    +0.199 HD
ENDBRANCH  60  61
ENDBRANCH  59  60
ENDBRANCH  58  59
ENDBRANCH  57  58
ENDBRANCH  54  57
ENDBRANCH  51  54
ENDBRANCH  49  50
BRANCH  49  65
ATOM     65  CB  VAL A   7       4.252  -5.803  25.367  0.00  0.00    +0.012 C 
ATOM     66  CG2 VAL A   7       3.918  -7.036  24.517  0.00  0.00    +0.009 C 
ATOM     67  CG1 VAL A   7       5.748  -5.849  25.704  0.00  0.00    +0.009 C 
ENDBRANCH  49  65
ENDBRANCH  47  49
ENDBRANCH  43  45
ENDBRANCH  40  43
ENDBRANCH  38  39
BRANCH  38  68
ATOM     68  CB  SER A   5       7.453   0.226  18.918  0.00  0.00    +0.187 C 
BRANCH  68  69
ATOM     69  OG  SER A   5       6.645   0.679  17.831  0.00  0.00    -0.393 OA
ATOM     70  H   SER A   5       5.722   0.661  18.142  0.00  0.00    +0.209 HD
ENDBRANCH  68  69
ENDBRANCH  38  68
ENDBRANCH  36  38
ENDBRANCH   1  34
BRANCH   1  71
ATOM     71  CB  GLN A   4       6.804   3.915  22.112  0.00  0.00    +0.041 C 
BRANCH  71  72
ATOM     72  CG  GLN A   4       6.728   5.216  22.910  0.00  0.00    +0.098 C 
BRANCH  72  73
ATOM     73  CD  GLN A   4       6.605   5.016  24.406  0.00  0.00    +0.211 C 
ATOM     74  OE1 GLN A   4       7.151   4.087  24.993  0.00  0.00    -0.276 OA
ATOM     75  NE2 GLN A   4       5.774   5.859  25.076  0.00  0.00    -0.329 N 
ATOM     76 HE21 GLN A   4       5.398   6.708  24.682  0.00  0.00    +0.145 HD
ATOM     77 HE22 GLN A   4       5.719   5.739  26.079  0.00  0.00    +0.145 HD
ENDBRANCH  72  73
ENDBRANCH  71  72
ENDBRANCH   1  71
TORSDOF 32
ENDMDL
MODEL 20
REMARK VINA RESULT:      -5.0      2.259      8.873
REMARK  Name = VTFQSAVK-mmff94.pdb
REMARK  38 active torsions:
REMARK  status: ('A' for Active; 'I' for Inactive)
REMARK    1  A    between atoms: _1  and  _2
REMARK    2  A    between atoms: _2  and  _3
REMARK    3  A    between atoms: _2  and  _5
REMARK    4  A    between atoms: _5  and  _6
REMARK    5  A    between atoms: _5  and  _7
REMARK    6  A    between atoms: _17  and  _18
REMARK    7  A    between atoms: _18  and  _19
REMARK    8  A    between atoms: _18  and  _21
REMARK    9  A    between atoms: _21  and  _22
REMARK   10  A    between atoms: _21  and  _23
REMARK   11  A    between atoms: _31  and  _32
REMARK   12  A    between atoms: _32  and  _33
REMARK   13  A    between atoms: _32  and  _35
REMARK   14  A    between atoms: _35  and  _36
REMARK   15  A    between atoms: _51  and  _52
REMARK   16  A    between atoms: _52  and  _53
REMARK   17  A    between atoms: _52  and  _55
REMARK   18  A    between atoms: _55  and  _56
REMARK   19  A    between atoms: _56  and  _57
REMARK   20  A    between atoms: _68  and  _69
REMARK   21  A    between atoms: _69  and  _70
REMARK   22  A    between atoms: _69  and  _72
REMARK   23  A    between atoms: _72  and  _73
REMARK   24  A    between atoms: _79  and  _80
REMARK   25  A    between atoms: _80  and  _81
REMARK   26  A    between atoms: _80  and  _83
REMARK   27  A    between atoms: _89  and  _90
REMARK   28  A    between atoms: _90  and  _91
REMARK   29  A    between atoms: _90  and  _93
REMARK   30  A    between atoms: _93  and  _94
REMARK   31  A    between atoms: _93  and  _95
REMARK   32  A    between atoms: _105  and  _106
REMARK   33  A    between atoms: _106  and  _107
REMARK   34  A    between atoms: _106  and  _109
REMARK   35  A    between atoms: _109  and  _110
REMARK   36  A    between atoms: _110  and  _111
REMARK   37  A    between atoms: _111  and  _112
REMARK   38  A    between atoms: _112  and  _113
REMARK                            x       y       z     vdW  Elec       q    Type
REMARK                         _______ _______ _______ _____ _____    ______ ____
ROOT
ATOM      1  CA  GLN A   4       9.330  -3.165  24.426  0.00  0.00    +0.159 C 
ENDROOT
BRANCH   1   4
ATOM      2  C   PHE A   3      10.104  -1.222  23.070  0.00  0.00    +0.234 C 
ATOM      3  O   PHE A   3      10.834  -1.924  22.370  0.00  0.00    -0.274 OA
ATOM      4  N   GLN A   4       9.330  -1.742  24.080  0.00  0.00    -0.302 N 
ATOM      5  H   GLN A   4       8.783  -1.129  24.680  0.00  0.00    +0.150 HD
BRANCH   2   6
ATOM      6  CA  PHE A   3       9.945   0.293  22.842  0.00  0.00    +0.163 C 
BRANCH   6   8
ATOM      7  C   THR A   2       8.111   0.122  21.169  0.00  0.00    +0.236 C 
ATOM      8  N   PHE A   3       8.572   0.529  22.398  0.00  0.00    -0.302 N 
ATOM      9  H   PHE A   3       7.930   0.914  23.084  0.00  0.00    +0.150 HD
ATOM     10  O   THR A   2       8.815  -0.465  20.348  0.00  0.00    -0.274 OA
BRANCH   7  11
ATOM     11  CA  THR A   2       6.623   0.401  20.912  0.00  0.00    +0.187 C 
BRANCH  11  14
ATOM     12  C   VAL A   1       6.003   2.029  22.687  0.00  0.00    +0.231 C 
ATOM     13  O   VAL A   1       5.964   1.175  23.571  0.00  0.00    -0.274 OA
ATOM     14  N   THR A   2       6.360   1.761  21.387  0.00  0.00    -0.301 N 
ATOM     15  H   THR A   2       6.442   2.511  20.711  0.00  0.00    +0.150 HD
BRANCH  12  16
ATOM     16  CA  VAL A   1       5.609   3.503  22.947  0.00  0.00    +0.140 C 
BRANCH  16  17
ATOM     17  N   VAL A   1       4.525   3.851  22.001  0.00  0.00    -0.320 NA
ATOM     18  H1  VAL A   1       4.939   4.454  21.282  0.00  0.00    +0.119 HD
ATOM     19  H2  VAL A   1       3.865   4.463  22.485  0.00  0.00    +0.119 HD
ENDBRANCH  16  17
BRANCH  16  20
ATOM     20  CB  VAL A   1       5.160   3.702  24.413  0.00  0.00    +0.009 C 
ATOM     21  CG2 VAL A   1       5.437   5.134  24.883  0.00  0.00    +0.009 C 
ATOM     22  CG1 VAL A   1       3.670   3.396  24.603  0.00  0.00    +0.009 C 
ENDBRANCH  16  20
ENDBRANCH  12  16
ENDBRANCH  11  14
BRANCH  11  23
ATOM     23  CB  THR A   2       6.330   0.281  19.398  0.00  0.00    +0.141 C 
ATOM     24  CG2 THR A   2       5.158   1.150  18.953  0.00  0.00    +0.040 C 
BRANCH  23  25
ATOM     25  OG1 THR A   2       7.482   0.678  18.642  0.00  0.00    -0.390 OA
ATOM     26  HG1 THR A   2       7.439   0.239  17.776  0.00  0.00    +0.210 HD
ENDBRANCH  23  25
ENDBRANCH  11  23
ENDBRANCH   7  11
ENDBRANCH   6   8
BRANCH   6  27
ATOM     27  CB  PHE A   3      10.266   1.025  24.154  0.00  0.00    +0.067 C 
BRANCH  27  28
ATOM     28  CG  PHE A   3      10.180   2.531  24.065  0.00  0.00    -0.045 A 
ATOM     29  CD2 PHE A   3      11.227   3.267  23.494  0.00  0.00    +0.004 A 
ATOM     30  CE2 PHE A   3      11.145   4.657  23.399  0.00  0.00    +0.000 A 
ATOM     31  CZ  PHE A   3      10.022   5.325  23.879  0.00  0.00    +0.000 A 
ATOM     32  CE1 PHE A   3       8.977   4.604  24.452  0.00  0.00    +0.000 A 
ATOM     33  CD1 PHE A   3       9.052   3.213  24.541  0.00  0.00    +0.004 A 
ENDBRANCH  27  28
ENDBRANCH   6  27
ENDBRANCH   2   6
ENDBRANCH   1   4
BRANCH   1  34
ATOM     34  C   GLN A   4       8.099  -3.775  23.726  0.00  0.00    +0.234 C 
ATOM     35  O   GLN A   4       8.099  -4.927  23.293  0.00  0.00    -0.274 OA
ATOM     36  N   SER A   5       7.024  -2.937  23.579  0.00  0.00    -0.301 N 
ATOM     37  H   SER A   5       7.047  -1.975  23.916  0.00  0.00    +0.150 HD
BRANCH  36  38
ATOM     38  CA  SER A   5       5.852  -3.304  22.779  0.00  0.00    +0.184 C 
BRANCH  38  39
ATOM     39  C   SER A   5       4.932  -4.161  23.666  0.00  0.00    +0.236 C 
ATOM     40  N   ALA A   6       3.721  -4.498  23.115  0.00  0.00    -0.303 N 
ATOM     41  H   ALA A   6       3.458  -4.181  22.185  0.00  0.00    +0.149 HD
ATOM     42  O   SER A   5       5.263  -4.500  24.804  0.00  0.00    -0.274 OA
BRANCH  40  43
ATOM     43  CA  ALA A   6       2.780  -5.387  23.786  0.00  0.00    +0.156 C 
ATOM     44  CB  ALA A   6       3.428  -6.701  24.198  0.00  0.00    +0.038 C 
BRANCH  43  45
ATOM     45  C   ALA A   6       2.256  -4.654  25.032  0.00  0.00    +0.234 C 
ATOM     46  O   ALA A   6       1.455  -3.722  24.952  0.00  0.00    -0.274 OA
ATOM     47  N   VAL A   7       2.767  -5.101  26.226  0.00  0.00    -0.302 N 
ATOM     48  H   VAL A   7       3.431  -5.871  26.243  0.00  0.00    +0.150 HD
BRANCH  47  49
ATOM     49  CA  VAL A   7       2.372  -4.549  27.523  0.00  0.00    +0.161 C 
BRANCH  49  50
ATOM     50  C   VAL A   7       3.359  -3.387  27.787  0.00  0.00    +0.234 C 
ATOM     51  N   LYS A   8       2.784  -2.153  27.967  0.00  0.00    -0.304 N 
ATOM     52  H   LYS A   8       1.777  -2.036  27.871  0.00  0.00    +0.149 HD
ATOM     53  O   VAL A   7       4.577  -3.557  27.872  0.00  0.00    -0.274 OA
BRANCH  51  54
ATOM     54  CA  LYS A   8       3.552  -0.992  28.397  0.00  0.00    +0.136 C 
BRANCH  54  55
ATOM     55  C   LYS A   8       2.764  -0.337  29.522  0.00  0.00    +0.245 C 
ATOM     56  O   LYS A   8       2.353   0.821  29.475  0.00  0.00    -0.299 OA
ENDBRANCH  54  55
BRANCH  54  57
ATOM     57  CB  LYS A   8       3.777  -0.010  27.240  0.00  0.00    +0.030 C 
BRANCH  57  58
ATOM     58  CG  LYS A   8       5.183   0.602  27.237  0.00  0.00    +0.007 C 
BRANCH  58  59
ATOM     59  CD  LYS A   8       6.261  -0.483  27.156  0.00  0.00    +0.051 C 
BRANCH  59  60
ATOM     60  CE  LYS A   8       7.544   0.051  26.531  0.00  0.00    +0.127 C 
BRANCH  60  61
ATOM     61  NZ  LYS A   8       8.664  -0.131  27.484  0.00  0.00    +0.219 N 
ATOM     62  HZ1 LYS A   8       9.313   0.667  27.468  0.00  0.00    +0.199 HD
ATOM     63  HZ2 LYS A   8       9.214  -0.972  27.256  0.00  0.00    +0.199 HD
ATOM     64  HZ3 LYS A   8       8.331  -0.241  28.452  0.00  0.00    +0.199 HD
ENDBRANCH  60  61
ENDBRANCH  59  60
ENDBRANCH  58  59
ENDBRANCH  57  58
ENDBRANCH  54  57
ENDBRANCH  51  54
ENDBRANCH  49  50
BRANCH  49  65
ATOM     65  CB  VAL A   7       2.437  -5.614  28.650  0.00  0.00    +0.012 C 
ATOM     66  CG2 VAL A   7       3.618  -6.579  28.481  0.00  0.00    +0.009 C 
ATOM     67  CG1 VAL A   7       2.533  -4.981  30.044  0.00  0.00    +0.009 C 
ENDBRANCH  49  65
ENDBRANCH  47  49
ENDBRANCH  43  45
ENDBRANCH  40  43
ENDBRANCH  38  39
BRANCH  38  68
ATOM     68  CB  SER A   5       6.237  -4.051  21.496  0.00  0.00    +0.187 C 
BRANCH  68  69
ATOM     69  OG  SER A   5       5.844  -5.423  21.547  0.00  0.00    -0.393 OA
ATOM     70  H   SER A   5       6.199  -5.846  20.745  0.00  0.00    +0.209 HD
ENDBRANCH  68  69
ENDBRANCH  38  68
ENDBRANCH  36  38
ENDBRANCH   1  34
BRANCH   1  71
ATOM     71  CB  GLN A   4       9.256  -3.349  25.950  0.00  0.00    +0.041 C 
BRANCH  71  72
ATOM     72  CG  GLN A   4       7.891  -3.826  26.445  0.00  0.00    +0.098 C 
BRANCH  72  73
ATOM     73  CD  GLN A   4       7.862  -5.278  26.871  0.00  0.00    +0.211 C 
ATOM     74  OE1 GLN A   4       7.266  -5.659  27.874  0.00  0.00    -0.276 OA
ATOM     75  NE2 GLN A   4       8.615  -6.150  26.147  0.00  0.00    -0.329 N 
ATOM     76 HE21 GLN A   4       9.024  -5.930  25.251  0.00  0.00    +0.145 HD
ATOM     77 HE22 GLN A   4       8.568  -7.124  26.419  0.00  0.00    +0.145 HD
ENDBRANCH  72  73
ENDBRANCH  71  72
ENDBRANCH   1  71
TORSDOF 32
ENDMDL
