REMARK  Name = VTFQSAVK-mmff94.pdb
REMARK  38 active torsions:
REMARK  status: ('A' for Active; 'I' for Inactive)
REMARK    1  A    between atoms: _1  and  _2
REMARK    2  A    between atoms: _2  and  _3
REMARK    3  A    between atoms: _2  and  _5
REMARK    4  A    between atoms: _5  and  _6
REMARK    5  A    between atoms: _5  and  _7
REMARK    6  A    between atoms: _17  and  _18
REMARK    7  A    between atoms: _18  and  _19
REMARK    8  A    between atoms: _18  and  _21
REMARK    9  A    between atoms: _21  and  _22
REMARK   10  A    between atoms: _21  and  _23
REMARK   11  A    between atoms: _31  and  _32
REMARK   12  A    between atoms: _32  and  _33
REMARK   13  A    between atoms: _32  and  _35
REMARK   14  A    between atoms: _35  and  _36
REMARK   15  A    between atoms: _51  and  _52
REMARK   16  A    between atoms: _52  and  _53
REMARK   17  A    between atoms: _52  and  _55
REMARK   18  A    between atoms: _55  and  _56
REMARK   19  A    between atoms: _56  and  _57
REMARK   20  A    between atoms: _68  and  _69
REMARK   21  A    between atoms: _69  and  _70
REMARK   22  A    between atoms: _69  and  _72
REMARK   23  A    between atoms: _72  and  _73
REMARK   24  A    between atoms: _79  and  _80
REMARK   25  A    between atoms: _80  and  _81
REMARK   26  A    between atoms: _80  and  _83
REMARK   27  A    between atoms: _89  and  _90
REMARK   28  A    between atoms: _90  and  _91
REMARK   29  A    between atoms: _90  and  _93
REMARK   30  A    between atoms: _93  and  _94
REMARK   31  A    between atoms: _93  and  _95
REMARK   32  A    between atoms: _105  and  _106
REMARK   33  A    between atoms: _106  and  _107
REMARK   34  A    between atoms: _106  and  _109
REMARK   35  A    between atoms: _109  and  _110
REMARK   36  A    between atoms: _110  and  _111
REMARK   37  A    between atoms: _111  and  _112
REMARK   38  A    between atoms: _112  and  _113
REMARK                            x       y       z     vdW  Elec       q    Type
REMARK                         _______ _______ _______ _____ _____    ______ ____
ROOT
ATOM      1  CA  GLN A   4       9.970   4.411  -1.083  0.00  0.00    +0.159 C 
ENDROOT
BRANCH   1   4
ATOM      2  C   PHE A   3       7.824   3.251  -0.573  0.00  0.00    +0.234 C 
ATOM      3  O   PHE A   3       8.394   2.209  -0.249  0.00  0.00    -0.274 OA
ATOM      4  N   GLN A   4       8.510   4.371  -0.977  0.00  0.00    -0.302 N 
ATOM      5  H   GLN A   4       8.009   5.197  -1.296  0.00  0.00    +0.150 HD
BRANCH   2   6
ATOM      6  CA  PHE A   3       6.294   3.415  -0.500  0.00  0.00    +0.163 C 
BRANCH   6   8
ATOM      7  C   THR A   2       4.676   1.713  -1.323  0.00  0.00    +0.236 C 
ATOM      8  N   PHE A   3       5.709   2.075  -0.492  0.00  0.00    -0.302 N 
ATOM      9  H   PHE A   3       6.172   1.377   0.082  0.00  0.00    +0.150 HD
ATOM     10  O   THR A   2       4.161   2.486  -2.131  0.00  0.00    -0.274 OA
BRANCH   7  11
ATOM     11  CA  THR A   2       4.242   0.244  -1.214  0.00  0.00    +0.187 C 
BRANCH  11  14
ATOM     12  C   VAL A   1       2.028  -0.548  -0.403  0.00  0.00    +0.231 C 
ATOM     13  O   VAL A   1       2.511  -1.224   0.504  0.00  0.00    -0.274 OA
ATOM     14  N   THR A   2       2.778   0.233  -1.249  0.00  0.00    -0.301 N 
ATOM     15  H   THR A   2       2.328   0.824  -1.938  0.00  0.00    +0.150 HD
BRANCH  12  16
ATOM     16  CA  VAL A   1       0.511  -0.543  -0.709  0.00  0.00    +0.140 C 
BRANCH  16  17
ATOM     17  N   VAL A   1       0.095  -1.945  -0.936  0.00  0.00    -0.320 NA
ATOM     18  H1  VAL A   1       0.328  -2.467  -0.085  0.00  0.00    +0.119 HD
ATOM     19  H2  VAL A   1       0.709  -2.348  -1.647  0.00  0.00    +0.119 HD
ENDBRANCH  16  17
BRANCH  16  20
ATOM     20  CB  VAL A   1      -0.283   0.098   0.452  0.00  0.00    +0.009 C 
ATOM     21  CG2 VAL A   1       0.141   1.554   0.671  0.00  0.00    +0.009 C 
ATOM     22  CG1 VAL A   1      -1.796   0.052   0.205  0.00  0.00    +0.009 C 
ENDBRANCH  16  20
ENDBRANCH  12  16
ENDBRANCH  11  14
BRANCH  11  23
ATOM     23  CB  THR A   2       4.827  -0.556  -2.401  0.00  0.00    +0.141 C 
ATOM     24  CG2 THR A   2       6.350  -0.635  -2.366  0.00  0.00    +0.040 C 
BRANCH  23  25
ATOM     25  OG1 THR A   2       4.318  -1.896  -2.389  0.00  0.00    -0.390 OA
ATOM     26  HG1 THR A   2       4.669  -2.359  -3.168  0.00  0.00    +0.210 HD
ENDBRANCH  23  25
ENDBRANCH  11  23
ENDBRANCH   7  11
ENDBRANCH   6   8
BRANCH   6  27
ATOM     27  CB  PHE A   3       5.944   4.210   0.767  0.00  0.00    +0.067 C 
BRANCH  27  28
ATOM     28  CG  PHE A   3       4.469   4.485   0.942  0.00  0.00    -0.045 A 
ATOM     29  CD2 PHE A   3       3.754   3.875   1.982  0.00  0.00    +0.004 A 
ATOM     30  CE2 PHE A   3       2.394   4.136   2.154  0.00  0.00    +0.000 A 
ATOM     31  CZ  PHE A   3       1.733   5.001   1.286  0.00  0.00    +0.000 A 
ATOM     32  CE1 PHE A   3       2.433   5.610   0.246  0.00  0.00    +0.000 A 
ATOM     33  CD1 PHE A   3       3.795   5.357   0.076  0.00  0.00    +0.004 A 
ENDBRANCH  27  28
ENDBRANCH   6  27
ENDBRANCH   2   6
ENDBRANCH   1   4
BRANCH   1  34
ATOM     34  C   GLN A   4      10.355   5.903  -1.126  0.00  0.00    +0.234 C 
ATOM     35  O   GLN A   4       9.587   6.763  -1.557  0.00  0.00    -0.274 OA
ATOM     36  N   SER A   5      11.622   6.202  -0.696  0.00  0.00    -0.301 N 
ATOM     37  H   SER A   5      12.259   5.477  -0.369  0.00  0.00    +0.150 HD
BRANCH  36  38
ATOM     38  CA  SER A   5      12.201   7.540  -0.844  0.00  0.00    +0.184 C 
BRANCH  38  39
ATOM     39  C   SER A   5      13.731   7.397  -0.772  0.00  0.00    +0.236 C 
ATOM     40  N   ALA A   6      14.450   8.497  -1.168  0.00  0.00    -0.303 N 
ATOM     41  H   ALA A   6      13.986   9.339  -1.499  0.00  0.00    +0.149 HD
ATOM     42  O   SER A   5      14.266   6.350  -0.400  0.00  0.00    -0.274 OA
BRANCH  40  43
ATOM     43  CA  ALA A   6      15.903   8.557  -1.064  0.00  0.00    +0.156 C 
ATOM     44  CB  ALA A   6      16.589   7.777  -2.177  0.00  0.00    +0.038 C 
BRANCH  43  45
ATOM     45  C   ALA A   6      16.314  10.037  -1.140  0.00  0.00    +0.234 C 
ATOM     46  O   ALA A   6      15.620  10.877  -1.714  0.00  0.00    -0.274 OA
ATOM     47  N   VAL A   7      17.515  10.338  -0.547  0.00  0.00    -0.302 N 
ATOM     48  H   VAL A   7      18.057   9.609  -0.089  0.00  0.00    +0.150 HD
BRANCH  47  49
ATOM     49  CA  VAL A   7      18.064  11.694  -0.492  0.00  0.00    +0.161 C 
BRANCH  49  50
ATOM     50  C   VAL A   7      19.598  11.514  -0.583  0.00  0.00    +0.234 C 
ATOM     51  N   LYS A   8      20.287  12.579  -1.111  0.00  0.00    -0.304 N 
ATOM     52  H   LYS A   8      19.785  13.393  -1.461  0.00  0.00    +0.149 HD
ATOM     53  O   VAL A   7      20.174  10.504  -0.174  0.00  0.00    -0.274 OA
BRANCH  51  54
ATOM     54  CA  LYS A   8      21.742  12.644  -1.105  0.00  0.00    +0.136 C 
BRANCH  54  55
ATOM     55  C   LYS A   8      22.115  14.119  -1.118  0.00  0.00    +0.245 C 
ATOM     56  O   LYS A   8      21.424  14.987  -1.648  0.00  0.00    -0.299 OA
ENDBRANCH  54  55
BRANCH  54  57
ATOM     57  CB  LYS A   8      22.340  11.915  -2.315  0.00  0.00    +0.030 C 
BRANCH  57  58
ATOM     58  CG  LYS A   8      23.868  11.803  -2.254  0.00  0.00    +0.007 C 
BRANCH  58  59
ATOM     59  CD  LYS A   8      24.415  11.015  -3.449  0.00  0.00    +0.051 C 
BRANCH  59  60
ATOM     60  CE  LYS A   8      25.935  10.921  -3.406  0.00  0.00    +0.127 C 
BRANCH  60  61
ATOM     61  NZ  LYS A   8      26.409  10.142  -4.575  0.00  0.00    +0.219 N 
ATOM     62  HZ1 LYS A   8      26.034   9.184  -4.572  0.00  0.00    +0.199 HD
ATOM     63  HZ2 LYS A   8      27.436  10.065  -4.578  0.00  0.00    +0.199 HD
ATOM     64  HZ3 LYS A   8      26.135  10.580  -5.465  0.00  0.00    +0.199 HD
ENDBRANCH  60  61
ENDBRANCH  59  60
ENDBRANCH  58  59
ENDBRANCH  57  58
ENDBRANCH  54  57
ENDBRANCH  51  54
ENDBRANCH  49  50
BRANCH  49  65
ATOM     65  CB  VAL A   7      17.657  12.431   0.812  0.00  0.00    +0.012 C 
ATOM     66  CG2 VAL A   7      18.253  13.842   0.902  0.00  0.00    +0.009 C 
ATOM     67  CG1 VAL A   7      16.135  12.546   0.964  0.00  0.00    +0.009 C 
ENDBRANCH  49  65
ENDBRANCH  47  49
ENDBRANCH  43  45
ENDBRANCH  40  43
ENDBRANCH  38  39
BRANCH  38  68
ATOM     68  CB  SER A   5      11.685   8.516   0.221  0.00  0.00    +0.187 C 
BRANCH  68  69
ATOM     69  OG  SER A   5      11.891   8.012   1.541  0.00  0.00    -0.393 OA
ATOM     70  H   SER A   5      11.424   7.159   1.591  0.00  0.00    +0.209 HD
ENDBRANCH  68  69
ENDBRANCH  38  68
ENDBRANCH  36  38
ENDBRANCH   1  34
BRANCH   1  71
ATOM     71  CB  GLN A   4      10.439   3.675  -2.348  0.00  0.00    +0.041 C 
BRANCH  71  72
ATOM     72  CG  GLN A   4      11.959   3.601  -2.487  0.00  0.00    +0.098 C 
BRANCH  72  73
ATOM     73  CD  GLN A   4      12.439   2.558  -3.474  0.00  0.00    +0.211 C 
ATOM     74  OE1 GLN A   4      13.432   1.866  -3.270  0.00  0.00    -0.276 OA
ATOM     75  NE2 GLN A   4      11.780   2.481  -4.661  0.00  0.00    -0.329 N 
ATOM     76 HE21 GLN A   4      10.893   2.927  -4.842  0.00  0.00    +0.145 HD
ATOM     77 HE22 GLN A   4      12.087   1.763  -5.305  0.00  0.00    +0.145 HD
ENDBRANCH  72  73
ENDBRANCH  71  72
ENDBRANCH   1  71
TORSDOF 32
