MODEL 1
REMARK VINA RESULT:      -6.6      0.000      0.000
REMARK  Name = AVLHS-mmff94.pdb
REMARK  22 active torsions:
REMARK  status: ('A' for Active; 'I' for Inactive)
REMARK    1  A    between atoms: _1  and  _2
REMARK    2  A    between atoms: _2  and  _3
REMARK    3  A    between atoms: _2  and  _5
REMARK    4  A    between atoms: _11  and  _12
REMARK    5  A    between atoms: _12  and  _13
REMARK    6  A    between atoms: _12  and  _15
REMARK    7  A    between atoms: _15  and  _16
REMARK    8  A    between atoms: _15  and  _17
REMARK    9  A    between atoms: _27  and  _28
REMARK   10  A    between atoms: _28  and  _29
REMARK   11  A    between atoms: _28  and  _31
REMARK   12  A    between atoms: _31  and  _32
REMARK   13  A    between atoms: _32  and  _33
REMARK   14  A    between atoms: _32  and  _34
REMARK   15  A    between atoms: _46  and  _47
REMARK   16  A    between atoms: _47  and  _48
REMARK   17  A    between atoms: _47  and  _50
REMARK   18  A    between atoms: _50  and  _51
REMARK   19  A    between atoms: _63  and  _64
REMARK   20  A    between atoms: _64  and  _65
REMARK   21  A    between atoms: _64  and  _67
REMARK   22  A    between atoms: _67  and  _68
REMARK                            x       y       z     vdW  Elec       q    Type
REMARK                         _______ _______ _______ _____ _____    ______ ____
ROOT
ATOM      1  CA  LEU A   3       9.553  -0.154  25.128  0.00  0.00    +0.159 C 
ENDROOT
BRANCH   1   4
ATOM      2  C   VAL A   2       9.791   2.149  24.213  0.00  0.00    +0.234 C 
ATOM      3  O   VAL A   2      10.989   2.019  23.961  0.00  0.00    -0.274 OA
ATOM      4  N   LEU A   3       9.051   1.193  24.863  0.00  0.00    -0.302 N 
ATOM      5  H   LEU A   3       8.039   1.293  24.897  0.00  0.00    +0.150 HD
BRANCH   2   6
ATOM      6  CA  VAL A   2       9.002   3.410  23.803  0.00  0.00    +0.161 C 
BRANCH   6   8
ATOM      7  C   ALA A   1       6.708   2.995  22.930  0.00  0.00    +0.230 C 
ATOM      8  N   VAL A   2       7.599   3.040  23.974  0.00  0.00    -0.302 N 
ATOM      9  H   VAL A   2       7.330   2.696  24.892  0.00  0.00    +0.150 HD
ATOM     10  O   ALA A   1       7.001   3.324  21.782  0.00  0.00    -0.274 OA
BRANCH   7  11
ATOM     11  CA  ALA A   1       5.304   2.492  23.315  0.00  0.00    +0.135 C 
ATOM     12  CB  ALA A   1       4.636   3.501  24.238  0.00  0.00    +0.033 C 
BRANCH  11  13
ATOM     13  N   ALA A   1       5.411   1.181  23.983  0.00  0.00    -0.320 NA
ATOM     14  H1  ALA A   1       4.676   0.574  23.614  0.00  0.00    +0.119 HD
ATOM     15  H2  ALA A   1       6.276   0.743  23.652  0.00  0.00    +0.119 HD
ENDBRANCH  11  13
ENDBRANCH   7  11
ENDBRANCH   6   8
BRANCH   6  16
ATOM     16  CB  VAL A   2       9.394   4.622  24.684  0.00  0.00    +0.012 C 
ATOM     17  CG2 VAL A   2       8.272   5.011  25.654  0.00  0.00    +0.009 C 
ATOM     18  CG1 VAL A   2       9.764   5.851  23.844  0.00  0.00    +0.009 C 
ENDBRANCH   6  16
ENDBRANCH   2   6
ENDBRANCH   1   4
BRANCH   1  19
ATOM     19  C   LEU A   3       9.224  -0.973  23.866  0.00  0.00    +0.234 C 
ATOM     20  N   HIS A   4       8.056  -0.640  23.227  0.00  0.00    -0.302 N 
ATOM     21  H   HIS A   4       7.474   0.130  23.546  0.00  0.00    +0.150 HD
ATOM     22  O   LEU A   3       9.969  -1.866  23.458  0.00  0.00    -0.274 OA
BRANCH  20  23
ATOM     23  CA  HIS A   4       7.648  -1.314  21.992  0.00  0.00    +0.165 C 
BRANCH  23  24
ATOM     24  C   HIS A   4       7.552  -0.253  20.883  0.00  0.00    +0.234 C 
ATOM     25  O   HIS A   4       8.531   0.411  20.536  0.00  0.00    -0.274 OA
ATOM     26  N   SER A   5       6.318  -0.112  20.291  0.00  0.00    -0.302 N 
ATOM     27  H   SER A   5       5.497  -0.515  20.763  0.00  0.00    +0.150 HD
BRANCH  26  28
ATOM     28  CA  SER A   5       6.077   0.933  19.296  0.00  0.00    +0.161 C 
BRANCH  28  29
ATOM     29  CB  SER A   5       4.865   1.767  19.687  0.00  0.00    +0.247 C 
ATOM     30  OG  SER A   5       3.708   1.482  19.382  0.00  0.00    -0.299 OA
ENDBRANCH  28  29
BRANCH  28  31
ATOM     31  C   SER A   5       5.854   0.359  17.889  0.00  0.00    +0.185 C 
BRANCH  31  32
ATOM     32  O   SER A   5       5.898  -1.067  17.903  0.00  0.00    -0.393 OA
ATOM     33  H   SER A   5       6.574  -1.315  18.561  0.00  0.00    +0.209 HD
ENDBRANCH  31  32
ENDBRANCH  28  31
ENDBRANCH  26  28
ENDBRANCH  23  24
BRANCH  23  34
ATOM     34  CB  HIS A   4       6.310  -2.047  22.160  0.00  0.00    +0.088 C 
BRANCH  34  35
ATOM     35  CG  HIS A   4       6.497  -3.517  22.046  0.00  0.00    +0.061 A 
ATOM     36  CD2 HIS A   4       7.369  -4.336  22.730  0.00  0.00    +0.107 A 
ATOM     37  NE2 HIS A   4       7.167  -5.583  22.210  0.00  0.00    -0.351 N 
ATOM     38  HE2 HIS A   4       7.651  -6.430  22.476  0.00  0.00    +0.166 HD
ATOM     39  CE1 HIS A   4       6.201  -5.475  21.250  0.00  0.00    +0.196 A 
ATOM     40  ND1 HIS A   4       5.783  -4.236  21.119  0.00  0.00    -0.241 NA
ENDBRANCH  34  35
ENDBRANCH  23  34
ENDBRANCH  20  23
ENDBRANCH   1  19
BRANCH   1  41
ATOM     41  CB  LEU A   3       8.879  -0.779  26.357  0.00  0.00    +0.034 C 
BRANCH  41  42
ATOM     42  CG  LEU A   3       7.471  -0.236  26.667  0.00  0.00    -0.015 C 
ATOM     43  CD2 LEU A   3       6.458  -1.384  26.646  0.00  0.00    +0.007 C 
ATOM     44  CD1 LEU A   3       7.412   0.470  28.024  0.00  0.00    +0.007 C 
ENDBRANCH  41  42
ENDBRANCH   1  41
TORSDOF 17
ENDMDL
MODEL 2
REMARK VINA RESULT:      -6.5      2.446      6.142
REMARK  Name = AVLHS-mmff94.pdb
REMARK  22 active torsions:
REMARK  status: ('A' for Active; 'I' for Inactive)
REMARK    1  A    between atoms: _1  and  _2
REMARK    2  A    between atoms: _2  and  _3
REMARK    3  A    between atoms: _2  and  _5
REMARK    4  A    between atoms: _11  and  _12
REMARK    5  A    between atoms: _12  and  _13
REMARK    6  A    between atoms: _12  and  _15
REMARK    7  A    between atoms: _15  and  _16
REMARK    8  A    between atoms: _15  and  _17
REMARK    9  A    between atoms: _27  and  _28
REMARK   10  A    between atoms: _28  and  _29
REMARK   11  A    between atoms: _28  and  _31
REMARK   12  A    between atoms: _31  and  _32
REMARK   13  A    between atoms: _32  and  _33
REMARK   14  A    between atoms: _32  and  _34
REMARK   15  A    between atoms: _46  and  _47
REMARK   16  A    between atoms: _47  and  _48
REMARK   17  A    between atoms: _47  and  _50
REMARK   18  A    between atoms: _50  and  _51
REMARK   19  A    between atoms: _63  and  _64
REMARK   20  A    between atoms: _64  and  _65
REMARK   21  A    between atoms: _64  and  _67
REMARK   22  A    between atoms: _67  and  _68
REMARK                            x       y       z     vdW  Elec       q    Type
REMARK                         _______ _______ _______ _____ _____    ______ ____
ROOT
ATOM      1  CA  LEU A   3       7.790  -3.091  22.385  0.00  0.00    +0.159 C 
ENDROOT
BRANCH   1   4
ATOM      2  C   VAL A   2       8.691  -3.171  24.704  0.00  0.00    +0.234 C 
ATOM      3  O   VAL A   2       9.750  -3.701  24.367  0.00  0.00    -0.274 OA
ATOM      4  N   LEU A   3       7.658  -2.935  23.832  0.00  0.00    -0.302 N 
ATOM      5  H   LEU A   3       6.881  -2.352  24.135  0.00  0.00    +0.150 HD
BRANCH   2   6
ATOM      6  CA  VAL A   2       8.434  -2.705  26.152  0.00  0.00    +0.161 C 
BRANCH   6   8
ATOM      7  C   ALA A   1       7.773  -0.400  26.817  0.00  0.00    +0.230 C 
ATOM      8  N   VAL A   2       7.616  -1.503  26.015  0.00  0.00    -0.302 N 
ATOM      9  H   VAL A   2       6.995  -1.468  25.211  0.00  0.00    +0.150 HD
ATOM     10  O   ALA A   1       8.567  -0.358  27.754  0.00  0.00    -0.274 OA
BRANCH   7  11
ATOM     11  CA  ALA A   1       6.870   0.792  26.441  0.00  0.00    +0.135 C 
ATOM     12  CB  ALA A   1       6.035   0.432  25.221  0.00  0.00    +0.033 C 
BRANCH  11  13
ATOM     13  N   ALA A   1       7.702   1.977  26.159  0.00  0.00    -0.320 NA
ATOM     14  H1  ALA A   1       7.384   2.386  25.278  0.00  0.00    +0.119 HD
ATOM     15  H2  ALA A   1       7.463   2.688  26.857  0.00  0.00    +0.119 HD
ENDBRANCH  11  13
ENDBRANCH   7  11
ENDBRANCH   6   8
BRANCH   6  16
ATOM     16  CB  VAL A   2       7.715  -3.806  26.970  0.00  0.00    +0.012 C 
ATOM     17  CG2 VAL A   2       8.075  -5.213  26.478  0.00  0.00    +0.009 C 
ATOM     18  CG1 VAL A   2       6.190  -3.650  26.932  0.00  0.00    +0.009 C 
ENDBRANCH   6  16
ENDBRANCH   2   6
ENDBRANCH   1   4
BRANCH   1  19
ATOM     19  C   LEU A   3       8.436  -1.785  21.885  0.00  0.00    +0.234 C 
ATOM     20  N   HIS A   4       7.649  -0.663  21.962  0.00  0.00    -0.302 N 
ATOM     21  H   HIS A   4       6.716  -0.693  22.367  0.00  0.00    +0.150 HD
ATOM     22  O   LEU A   3       9.589  -1.754  21.450  0.00  0.00    -0.274 OA
BRANCH  20  23
ATOM     23  CA  HIS A   4       8.157   0.650  21.559  0.00  0.00    +0.165 C 
BRANCH  23  24
ATOM     24  C   HIS A   4       8.908   1.255  22.756  0.00  0.00    +0.234 C 
ATOM     25  O   HIS A   4       9.101   0.613  23.791  0.00  0.00    -0.274 OA
ATOM     26  N   SER A   5       9.369   2.540  22.589  0.00  0.00    -0.302 N 
ATOM     27  H   SER A   5       8.990   3.102  21.814  0.00  0.00    +0.150 HD
BRANCH  26  28
ATOM     28  CA  SER A   5      10.010   3.258  23.691  0.00  0.00    +0.161 C 
BRANCH  28  29
ATOM     29  CB  SER A   5       9.190   4.484  24.071  0.00  0.00    +0.247 C 
ATOM     30  OG  SER A   5       8.620   4.620  25.152  0.00  0.00    -0.299 OA
ENDBRANCH  28  29
BRANCH  28  31
ATOM     31  C   SER A   5      11.439   3.703  23.348  0.00  0.00    +0.185 C 
BRANCH  31  32
ATOM     32  O   SER A   5      11.471   5.077  22.964  0.00  0.00    -0.393 OA
ATOM     33  H   SER A   5      11.111   5.581  23.718  0.00  0.00    +0.209 HD
ENDBRANCH  31  32
ENDBRANCH  28  31
ENDBRANCH  26  28
ENDBRANCH  23  24
BRANCH  23  34
ATOM     34  CB  HIS A   4       7.027   1.580  21.100  0.00  0.00    +0.088 C 
BRANCH  34  35
ATOM     35  CG  HIS A   4       6.372   1.050  19.876  0.00  0.00    +0.061 A 
ATOM     36  CD2 HIS A   4       5.189   1.438  19.287  0.00  0.00    +0.107 A 
ATOM     37  NE2 HIS A   4       5.027   0.597  18.223  0.00  0.00    -0.351 N 
ATOM     38  HE2 HIS A   4       4.254   0.593  17.572  0.00  0.00    +0.166 HD
ATOM     39  CE1 HIS A   4       6.097  -0.253  18.207  0.00  0.00    +0.196 A 
ATOM     40  ND1 HIS A   4       6.923  -0.012  19.201  0.00  0.00    -0.241 NA
ENDBRANCH  34  35
ENDBRANCH  23  34
ENDBRANCH  20  23
ENDBRANCH   1  19
BRANCH   1  41
ATOM     41  CB  LEU A   3       6.428  -3.301  21.709  0.00  0.00    +0.034 C 
BRANCH  41  42
ATOM     42  CG  LEU A   3       5.939  -4.762  21.683  0.00  0.00    -0.015 C 
ATOM     43  CD2 LEU A   3       7.142  -5.709  21.662  0.00  0.00    +0.007 C 
ATOM     44  CD1 LEU A   3       5.051  -5.094  22.885  0.00  0.00    +0.007 C 
ENDBRANCH  41  42
ENDBRANCH   1  41
TORSDOF 17
ENDMDL
MODEL 3
REMARK VINA RESULT:      -6.4      2.262      7.681
REMARK  Name = AVLHS-mmff94.pdb
REMARK  22 active torsions:
REMARK  status: ('A' for Active; 'I' for Inactive)
REMARK    1  A    between atoms: _1  and  _2
REMARK    2  A    between atoms: _2  and  _3
REMARK    3  A    between atoms: _2  and  _5
REMARK    4  A    between atoms: _11  and  _12
REMARK    5  A    between atoms: _12  and  _13
REMARK    6  A    between atoms: _12  and  _15
REMARK    7  A    between atoms: _15  and  _16
REMARK    8  A    between atoms: _15  and  _17
REMARK    9  A    between atoms: _27  and  _28
REMARK   10  A    between atoms: _28  and  _29
REMARK   11  A    between atoms: _28  and  _31
REMARK   12  A    between atoms: _31  and  _32
REMARK   13  A    between atoms: _32  and  _33
REMARK   14  A    between atoms: _32  and  _34
REMARK   15  A    between atoms: _46  and  _47
REMARK   16  A    between atoms: _47  and  _48
REMARK   17  A    between atoms: _47  and  _50
REMARK   18  A    between atoms: _50  and  _51
REMARK   19  A    between atoms: _63  and  _64
REMARK   20  A    between atoms: _64  and  _65
REMARK   21  A    between atoms: _64  and  _67
REMARK   22  A    between atoms: _67  and  _68
REMARK                            x       y       z     vdW  Elec       q    Type
REMARK                         _______ _______ _______ _____ _____    ______ ____
ROOT
ATOM      1  CA  LEU A   3       7.341  -1.630  21.188  0.00  0.00    +0.159 C 
ENDROOT
BRANCH   1   4
ATOM      2  C   VAL A   2       5.998  -3.635  21.800  0.00  0.00    +0.234 C 
ATOM      3  O   VAL A   2       5.686  -3.888  20.637  0.00  0.00    -0.274 OA
ATOM      4  N   LEU A   3       6.706  -2.516  22.161  0.00  0.00    -0.302 N 
ATOM      5  H   LEU A   3       7.069  -2.448  23.110  0.00  0.00    +0.150 HD
BRANCH   2   6
ATOM      6  CA  VAL A   2       5.629  -4.572  22.968  0.00  0.00    +0.161 C 
BRANCH   6   8
ATOM      7  C   ALA A   1       7.917  -5.265  23.662  0.00  0.00    +0.230 C 
ATOM      8  N   VAL A   2       6.782  -4.519  23.864  0.00  0.00    -0.302 N 
ATOM      9  H   VAL A   2       6.759  -3.808  24.589  0.00  0.00    +0.150 HD
ATOM     10  O   ALA A   1       8.030  -6.084  22.752  0.00  0.00    -0.274 OA
BRANCH   7  11
ATOM     11  CA  ALA A   1       9.047  -4.988  24.673  0.00  0.00    +0.135 C 
ATOM     12  CB  ALA A   1       8.496  -5.075  26.089  0.00  0.00    +0.033 C 
BRANCH  11  13
ATOM     13  N   ALA A   1       9.616  -3.650  24.428  0.00  0.00    -0.320 NA
ATOM     14  H1  ALA A   1      10.134  -3.366  25.262  0.00  0.00    +0.119 HD
ATOM     15  H2  ALA A   1      10.346  -3.756  23.715  0.00  0.00    +0.119 HD
ENDBRANCH  11  13
ENDBRANCH   7  11
ENDBRANCH   6   8
BRANCH   6  16
ATOM     16  CB  VAL A   2       4.330  -4.103  23.668  0.00  0.00    +0.012 C 
ATOM     17  CG2 VAL A   2       4.501  -4.005  25.188  0.00  0.00    +0.009 C 
ATOM     18  CG1 VAL A   2       3.145  -5.030  23.367  0.00  0.00    +0.009 C 
ENDBRANCH   6  16
ENDBRANCH   2   6
ENDBRANCH   1   4
BRANCH   1  19
ATOM     19  C   LEU A   3       8.677  -1.205  21.825  0.00  0.00    +0.234 C 
ATOM     20  N   HIS A   4       8.773   0.116  22.185  0.00  0.00    -0.302 N 
ATOM     21  H   HIS A   4       7.990   0.756  22.076  0.00  0.00    +0.150 HD
ATOM     22  O   LEU A   3       9.597  -2.006  22.003  0.00  0.00    -0.274 OA
BRANCH  20  23
ATOM     23  CA  HIS A   4       9.974   0.640  22.839  0.00  0.00    +0.165 C 
BRANCH  23  24
ATOM     24  C   HIS A   4       9.800   0.466  24.357  0.00  0.00    +0.234 C 
ATOM     25  O   HIS A   4      10.761   0.506  25.128  0.00  0.00    -0.274 OA
ATOM     26  N   SER A   5       8.509   0.289  24.798  0.00  0.00    -0.302 N 
ATOM     27  H   SER A   5       7.785   0.035  24.111  0.00  0.00    +0.150 HD
BRANCH  26  28
ATOM     28  CA  SER A   5       8.227   0.012  26.206  0.00  0.00    +0.161 C 
BRANCH  28  29
ATOM     29  CB  SER A   5       7.628  -1.379  26.363  0.00  0.00    +0.247 C 
ATOM     30  OG  SER A   5       7.180  -2.042  25.429  0.00  0.00    -0.299 OA
ENDBRANCH  28  29
BRANCH  28  31
ATOM     31  C   SER A   5       7.267   1.040  26.823  0.00  0.00    +0.185 C 
BRANCH  31  32
ATOM     32  O   SER A   5       7.734   2.371  26.610  0.00  0.00    -0.393 OA
ATOM     33  H   SER A   5       7.374   2.909  27.341  0.00  0.00    +0.209 HD
ENDBRANCH  31  32
ENDBRANCH  28  31
ENDBRANCH  26  28
ENDBRANCH  23  24
BRANCH  23  34
ATOM     34  CB  HIS A   4      10.218   2.112  22.485  0.00  0.00    +0.088 C 
BRANCH  34  35
ATOM     35  CG  HIS A   4       9.169   2.979  23.082  0.00  0.00    +0.061 A 
ATOM     36  CD2 HIS A   4       9.296   3.962  24.038  0.00  0.00    +0.107 A 
ATOM     37  NE2 HIS A   4       8.025   4.408  24.262  0.00  0.00    -0.351 N 
ATOM     38  HE2 HIS A   4       7.746   5.126  24.916  0.00  0.00    +0.166 HD
ATOM     39  CE1 HIS A   4       7.191   3.692  23.449  0.00  0.00    +0.196 A 
ATOM     40  ND1 HIS A   4       7.852   2.811  22.731  0.00  0.00    -0.241 NA
ENDBRANCH  34  35
ENDBRANCH  23  34
ENDBRANCH  20  23
ENDBRANCH   1  19
BRANCH   1  41
ATOM     41  CB  LEU A   3       6.477  -0.396  20.896  0.00  0.00    +0.034 C 
BRANCH  41  42
ATOM     42  CG  LEU A   3       6.194  -0.145  19.402  0.00  0.00    -0.015 C 
ATOM     43  CD2 LEU A   3       5.204   1.014  19.252  0.00  0.00    +0.007 C 
ATOM     44  CD1 LEU A   3       7.470   0.171  18.618  0.00  0.00    +0.007 C 
ENDBRANCH  41  42
ENDBRANCH   1  41
TORSDOF 17
ENDMDL
MODEL 4
REMARK VINA RESULT:      -6.4      1.731      2.307
REMARK  Name = AVLHS-mmff94.pdb
REMARK  22 active torsions:
REMARK  status: ('A' for Active; 'I' for Inactive)
REMARK    1  A    between atoms: _1  and  _2
REMARK    2  A    between atoms: _2  and  _3
REMARK    3  A    between atoms: _2  and  _5
REMARK    4  A    between atoms: _11  and  _12
REMARK    5  A    between atoms: _12  and  _13
REMARK    6  A    between atoms: _12  and  _15
REMARK    7  A    between atoms: _15  and  _16
REMARK    8  A    between atoms: _15  and  _17
REMARK    9  A    between atoms: _27  and  _28
REMARK   10  A    between atoms: _28  and  _29
REMARK   11  A    between atoms: _28  and  _31
REMARK   12  A    between atoms: _31  and  _32
REMARK   13  A    between atoms: _32  and  _33
REMARK   14  A    between atoms: _32  and  _34
REMARK   15  A    between atoms: _46  and  _47
REMARK   16  A    between atoms: _47  and  _48
REMARK   17  A    between atoms: _47  and  _50
REMARK   18  A    between atoms: _50  and  _51
REMARK   19  A    between atoms: _63  and  _64
REMARK   20  A    between atoms: _64  and  _65
REMARK   21  A    between atoms: _64  and  _67
REMARK   22  A    between atoms: _67  and  _68
REMARK                            x       y       z     vdW  Elec       q    Type
REMARK                         _______ _______ _______ _____ _____    ______ ____
ROOT
ATOM      1  CA  LEU A   3       9.524  -0.160  25.133  0.00  0.00    +0.159 C 
ENDROOT
BRANCH   1   4
ATOM      2  C   VAL A   2       9.716   2.168  24.274  0.00  0.00    +0.234 C 
ATOM      3  O   VAL A   2      10.940   2.117  24.157  0.00  0.00    -0.274 OA
ATOM      4  N   LEU A   3       8.970   1.157  24.826  0.00  0.00    -0.302 N 
ATOM      5  H   LEU A   3       7.957   1.193  24.746  0.00  0.00    +0.150 HD
BRANCH   2   6
ATOM      6  CA  VAL A   2       8.899   3.384  23.789  0.00  0.00    +0.161 C 
BRANCH   6   8
ATOM      7  C   ALA A   1       6.441   3.487  23.408  0.00  0.00    +0.230 C 
ATOM      8  N   VAL A   2       7.518   3.070  24.150  0.00  0.00    -0.302 N 
ATOM      9  H   VAL A   2       7.389   2.418  24.919  0.00  0.00    +0.150 HD
ATOM     10  O   ALA A   1       6.546   4.212  22.421  0.00  0.00    -0.274 OA
BRANCH   7  11
ATOM     11  CA  ALA A   1       5.081   2.967  23.914  0.00  0.00    +0.135 C 
ATOM     12  CB  ALA A   1       5.272   1.614  24.584  0.00  0.00    +0.033 C 
BRANCH  11  13
ATOM     13  N   ALA A   1       4.142   2.849  22.782  0.00  0.00    -0.320 NA
ATOM     14  H1  ALA A   1       4.519   3.385  21.998  0.00  0.00    +0.119 HD
ATOM     15  H2  ALA A   1       4.185   1.878  22.454  0.00  0.00    +0.119 HD
ENDBRANCH  11  13
ENDBRANCH   7  11
ENDBRANCH   6   8
BRANCH   6  16
ATOM     16  CB  VAL A   2       9.391   4.688  24.463  0.00  0.00    +0.012 C 
ATOM     17  CG2 VAL A   2       8.498   5.098  25.639  0.00  0.00    +0.009 C 
ATOM     18  CG1 VAL A   2       9.464   5.858  23.473  0.00  0.00    +0.009 C 
ENDBRANCH   6  16
ENDBRANCH   2   6
ENDBRANCH   1   4
BRANCH   1  19
ATOM     19  C   LEU A   3       9.378  -0.982  23.839  0.00  0.00    +0.234 C 
ATOM     20  N   HIS A   4       8.381  -1.926  23.841  0.00  0.00    -0.302 N 
ATOM     21  H   HIS A   4       7.754  -2.038  24.634  0.00  0.00    +0.150 HD
ATOM     22  O   LEU A   3      10.108  -0.796  22.864  0.00  0.00    -0.274 OA
BRANCH  20  23
ATOM     23  CA  HIS A   4       8.109  -2.746  22.659  0.00  0.00    +0.165 C 
BRANCH  23  24
ATOM     24  C   HIS A   4       7.112  -1.982  21.772  0.00  0.00    +0.234 C 
ATOM     25  O   HIS A   4       5.925  -2.307  21.704  0.00  0.00    -0.274 OA
ATOM     26  N   SER A   5       7.622  -0.904  21.084  0.00  0.00    -0.302 N 
ATOM     27  H   SER A   5       8.644  -0.817  20.995  0.00  0.00    +0.150 HD
BRANCH  26  28
ATOM     28  CA  SER A   5       6.797  -0.162  20.132  0.00  0.00    +0.161 C 
BRANCH  28  29
ATOM     29  CB  SER A   5       7.530  -0.002  18.808  0.00  0.00    +0.247 C 
ATOM     30  OG  SER A   5       7.140   0.716  17.889  0.00  0.00    -0.299 OA
ENDBRANCH  28  29
BRANCH  28  31
ATOM     31  C   SER A   5       6.408   1.229  20.656  0.00  0.00    +0.185 C 
BRANCH  31  32
ATOM     32  O   SER A   5       5.284   1.748  19.946  0.00  0.00    -0.393 OA
ATOM     33  H   SER A   5       4.490   1.394  20.391  0.00  0.00    +0.209 HD
ENDBRANCH  31  32
ENDBRANCH  28  31
ENDBRANCH  26  28
ENDBRANCH  23  24
BRANCH  23  34
ATOM     34  CB  HIS A   4       7.554  -4.125  23.038  0.00  0.00    +0.088 C 
BRANCH  34  35
ATOM     35  CG  HIS A   4       8.137  -4.593  24.321  0.00  0.00    +0.061 A 
ATOM     36  CD2 HIS A   4       7.495  -5.036  25.456  0.00  0.00    +0.107 A 
ATOM     37  NE2 HIS A   4       8.493  -5.293  26.353  0.00  0.00    -0.351 N 
ATOM     38  HE2 HIS A   4       8.378  -5.627  27.301  0.00  0.00    +0.166 HD
ATOM     39  CE1 HIS A   4       9.679  -5.002  25.740  0.00  0.00    +0.196 A 
ATOM     40  ND1 HIS A   4       9.497  -4.565  24.514  0.00  0.00    -0.241 NA
ENDBRANCH  34  35
ENDBRANCH  23  34
ENDBRANCH  20  23
ENDBRANCH   1  19
BRANCH   1  41
ATOM     41  CB  LEU A   3       8.767  -0.841  26.281  0.00  0.00    +0.034 C 
BRANCH  41  42
ATOM     42  CG  LEU A   3       7.408  -0.202  26.627  0.00  0.00    -0.015 C 
ATOM     43  CD2 LEU A   3       6.326  -1.285  26.678  0.00  0.00    +0.007 C 
ATOM     44  CD1 LEU A   3       7.445   0.544  27.963  0.00  0.00    +0.007 C 
ENDBRANCH  41  42
ENDBRANCH   1  41
TORSDOF 17
ENDMDL
MODEL 5
REMARK VINA RESULT:      -6.4      3.035      4.941
REMARK  Name = AVLHS-mmff94.pdb
REMARK  22 active torsions:
REMARK  status: ('A' for Active; 'I' for Inactive)
REMARK    1  A    between atoms: _1  and  _2
REMARK    2  A    between atoms: _2  and  _3
REMARK    3  A    between atoms: _2  and  _5
REMARK    4  A    between atoms: _11  and  _12
REMARK    5  A    between atoms: _12  and  _13
REMARK    6  A    between atoms: _12  and  _15
REMARK    7  A    between atoms: _15  and  _16
REMARK    8  A    between atoms: _15  and  _17
REMARK    9  A    between atoms: _27  and  _28
REMARK   10  A    between atoms: _28  and  _29
REMARK   11  A    between atoms: _28  and  _31
REMARK   12  A    between atoms: _31  and  _32
REMARK   13  A    between atoms: _32  and  _33
REMARK   14  A    between atoms: _32  and  _34
REMARK   15  A    between atoms: _46  and  _47
REMARK   16  A    between atoms: _47  and  _48
REMARK   17  A    between atoms: _47  and  _50
REMARK   18  A    between atoms: _50  and  _51
REMARK   19  A    between atoms: _63  and  _64
REMARK   20  A    between atoms: _64  and  _65
REMARK   21  A    between atoms: _64  and  _67
REMARK   22  A    between atoms: _67  and  _68
REMARK                            x       y       z     vdW  Elec       q    Type
REMARK                         _______ _______ _______ _____ _____    ______ ____
ROOT
ATOM      1  CA  LEU A   3       7.826  -0.998  24.215  0.00  0.00    +0.159 C 
ENDROOT
BRANCH   1   4
ATOM      2  C   VAL A   2       8.022   1.040  22.798  0.00  0.00    +0.234 C 
ATOM      3  O   VAL A   2       9.208   1.221  23.071  0.00  0.00    -0.274 OA
ATOM      4  N   LEU A   3       7.258   0.058  23.379  0.00  0.00    -0.302 N 
ATOM      5  H   LEU A   3       6.338  -0.141  22.995  0.00  0.00    +0.150 HD
BRANCH   2   6
ATOM      6  CA  VAL A   2       7.282   1.901  21.754  0.00  0.00    +0.161 C 
BRANCH   6   8
ATOM      7  C   ALA A   1       6.762   0.310  19.912  0.00  0.00    +0.230 C 
ATOM      8  N   VAL A   2       6.398   0.966  21.061  0.00  0.00    -0.302 N 
ATOM      9  H   VAL A   2       5.533   0.725  21.537  0.00  0.00    +0.150 HD
ATOM     10  O   ALA A   1       7.831   0.503  19.337  0.00  0.00    -0.274 OA
BRANCH   7  11
ATOM     11  CA  ALA A   1       5.717  -0.700  19.399  0.00  0.00    +0.135 C 
ATOM     12  CB  ALA A   1       5.830  -1.996  20.189  0.00  0.00    +0.033 C 
BRANCH  11  13
ATOM     13  N   ALA A   1       5.936  -0.957  17.963  0.00  0.00    -0.320 NA
ATOM     14  H1  ALA A   1       5.342  -1.741  17.686  0.00  0.00    +0.119 HD
ATOM     15  H2  ALA A   1       5.542  -0.161  17.450  0.00  0.00    +0.119 HD
ENDBRANCH  11  13
ENDBRANCH   7  11
ENDBRANCH   6   8
BRANCH   6  16
ATOM     16  CB  VAL A   2       6.495   3.047  22.436  0.00  0.00    +0.012 C 
ATOM     17  CG2 VAL A   2       5.044   3.115  21.946  0.00  0.00    +0.009 C 
ATOM     18  CG1 VAL A   2       7.153   4.414  22.210  0.00  0.00    +0.009 C 
ENDBRANCH   6  16
ENDBRANCH   2   6
ENDBRANCH   1   4
BRANCH   1  19
ATOM     19  C   LEU A   3       8.006  -2.211  23.283  0.00  0.00    +0.234 C 
ATOM     20  N   HIS A   4       7.219  -3.300  23.562  0.00  0.00    -0.302 N 
ATOM     21  H   HIS A   4       6.531  -3.283  24.311  0.00  0.00    +0.150 HD
ATOM     22  O   LEU A   3       8.804  -2.196  22.343  0.00  0.00    -0.274 OA
BRANCH  20  23
ATOM     23  CA  HIS A   4       7.263  -4.503  22.727  0.00  0.00    +0.165 C 
BRANCH  23  24
ATOM     24  C   HIS A   4       5.814  -4.939  22.451  0.00  0.00    +0.234 C 
ATOM     25  O   HIS A   4       5.440  -5.266  21.323  0.00  0.00    -0.274 OA
ATOM     26  N   SER A   5       4.976  -4.965  23.541  0.00  0.00    -0.302 N 
ATOM     27  H   SER A   5       5.266  -4.473  24.397  0.00  0.00    +0.150 HD
BRANCH  26  28
ATOM     28  CA  SER A   5       3.553  -5.266  23.388  0.00  0.00    +0.161 C 
BRANCH  28  29
ATOM     29  CB  SER A   5       2.737  -4.506  24.425  0.00  0.00    +0.247 C 
ATOM     30  OG  SER A   5       3.196  -3.623  25.147  0.00  0.00    -0.299 OA
ENDBRANCH  28  29
BRANCH  28  31
ATOM     31  C   SER A   5       3.254  -6.767  23.523  0.00  0.00    +0.185 C 
BRANCH  31  32
ATOM     32  O   SER A   5       4.341  -7.453  24.142  0.00  0.00    -0.393 OA
ATOM     33  H   SER A   5       3.946  -8.157  24.689  0.00  0.00    +0.209 HD
ENDBRANCH  31  32
ENDBRANCH  28  31
ENDBRANCH  26  28
ENDBRANCH  23  24
BRANCH  23  34
ATOM     34  CB  HIS A   4       8.053  -5.633  23.399  0.00  0.00    +0.088 C 
BRANCH  34  35
ATOM     35  CG  HIS A   4       8.363  -5.293  24.811  0.00  0.00    +0.061 A 
ATOM     36  CD2 HIS A   4       9.588  -5.080  25.403  0.00  0.00    +0.107 A 
ATOM     37  NE2 HIS A   4       9.312  -4.851  26.721  0.00  0.00    -0.351 N 
ATOM     38  HE2 HIS A   4       9.984  -4.667  27.454  0.00  0.00    +0.166 HD
ATOM     39  CE1 HIS A   4       7.956  -4.933  26.876  0.00  0.00    +0.196 A 
ATOM     40  ND1 HIS A   4       7.355  -5.210  25.740  0.00  0.00    -0.241 NA
ENDBRANCH  34  35
ENDBRANCH  23  34
ENDBRANCH  20  23
ENDBRANCH   1  19
BRANCH   1  41
ATOM     41  CB  LEU A   3       6.897  -1.360  25.381  0.00  0.00    +0.034 C 
BRANCH  41  42
ATOM     42  CG  LEU A   3       7.376  -0.875  26.763  0.00  0.00    -0.015 C 
ATOM     43  CD2 LEU A   3       8.905  -0.925  26.826  0.00  0.00    +0.007 C 
ATOM     44  CD1 LEU A   3       6.899   0.547  27.071  0.00  0.00    +0.007 C 
ENDBRANCH  41  42
ENDBRANCH   1  41
TORSDOF 17
ENDMDL
MODEL 6
REMARK VINA RESULT:      -6.4      2.481      5.820
REMARK  Name = AVLHS-mmff94.pdb
REMARK  22 active torsions:
REMARK  status: ('A' for Active; 'I' for Inactive)
REMARK    1  A    between atoms: _1  and  _2
REMARK    2  A    between atoms: _2  and  _3
REMARK    3  A    between atoms: _2  and  _5
REMARK    4  A    between atoms: _11  and  _12
REMARK    5  A    between atoms: _12  and  _13
REMARK    6  A    between atoms: _12  and  _15
REMARK    7  A    between atoms: _15  and  _16
REMARK    8  A    between atoms: _15  and  _17
REMARK    9  A    between atoms: _27  and  _28
REMARK   10  A    between atoms: _28  and  _29
REMARK   11  A    between atoms: _28  and  _31
REMARK   12  A    between atoms: _31  and  _32
REMARK   13  A    between atoms: _32  and  _33
REMARK   14  A    between atoms: _32  and  _34
REMARK   15  A    between atoms: _46  and  _47
REMARK   16  A    between atoms: _47  and  _48
REMARK   17  A    between atoms: _47  and  _50
REMARK   18  A    between atoms: _50  and  _51
REMARK   19  A    between atoms: _63  and  _64
REMARK   20  A    between atoms: _64  and  _65
REMARK   21  A    between atoms: _64  and  _67
REMARK   22  A    between atoms: _67  and  _68
REMARK                            x       y       z     vdW  Elec       q    Type
REMARK                         _______ _______ _______ _____ _____    ______ ____
ROOT
ATOM      1  CA  LEU A   3       7.489   0.133  21.195  0.00  0.00    +0.159 C 
ENDROOT
BRANCH   1   4
ATOM      2  C   VAL A   2       6.765   2.393  21.949  0.00  0.00    +0.234 C 
ATOM      3  O   VAL A   2       5.792   2.428  21.196  0.00  0.00    -0.274 OA
ATOM      4  N   LEU A   3       7.685   1.374  21.941  0.00  0.00    -0.302 N 
ATOM      5  H   LEU A   3       8.371   1.325  22.692  0.00  0.00    +0.150 HD
BRANCH   2   6
ATOM      6  CA  VAL A   2       7.032   3.498  22.991  0.00  0.00    +0.161 C 
BRANCH   6   8
ATOM      7  C   ALA A   1       9.226   4.024  24.043  0.00  0.00    +0.230 C 
ATOM      8  N   VAL A   2       8.475   3.720  22.935  0.00  0.00    -0.302 N 
ATOM      9  H   VAL A   2       8.929   3.520  22.048  0.00  0.00    +0.150 HD
ATOM     10  O   ALA A   1       8.738   4.198  25.158  0.00  0.00    -0.274 OA
BRANCH   7  11
ATOM     11  CA  ALA A   1      10.741   4.125  23.776  0.00  0.00    +0.135 C 
ATOM     12  CB  ALA A   1      11.130   5.587  23.604  0.00  0.00    +0.033 C 
BRANCH  11  13
ATOM     13  N   ALA A   1      11.084   3.360  22.563  0.00  0.00    -0.320 NA
ATOM     14  H1  ALA A   1      11.067   4.000  21.767  0.00  0.00    +0.119 HD
ATOM     15  H2  ALA A   1      12.073   3.097  22.641  0.00  0.00    +0.119 HD
ENDBRANCH  11  13
ENDBRANCH   7  11
ENDBRANCH   6   8
BRANCH   6  16
ATOM     16  CB  VAL A   2       6.235   4.782  22.656  0.00  0.00    +0.012 C 
ATOM     17  CG2 VAL A   2       7.120   5.854  22.010  0.00  0.00    +0.009 C 
ATOM     18  CG1 VAL A   2       5.563   5.385  23.896  0.00  0.00    +0.009 C 
ENDBRANCH   6  16
ENDBRANCH   2   6
ENDBRANCH   1   4
BRANCH   1  19
ATOM     19  C   LEU A   3       8.458  -0.885  21.824  0.00  0.00    +0.234 C 
ATOM     20  N   HIS A   4       7.922  -1.698  22.791  0.00  0.00    -0.302 N 
ATOM     21  H   HIS A   4       6.936  -1.656  23.039  0.00  0.00    +0.150 HD
ATOM     22  O   LEU A   3       9.637  -0.965  21.473  0.00  0.00    -0.274 OA
BRANCH  20  23
ATOM     23  CA  HIS A   4       8.725  -2.738  23.440  0.00  0.00    +0.165 C 
BRANCH  23  24
ATOM     24  C   HIS A   4       7.830  -3.972  23.639  0.00  0.00    +0.234 C 
ATOM     25  O   HIS A   4       8.185  -5.095  23.277  0.00  0.00    -0.274 OA
ATOM     26  N   SER A   5       6.625  -3.746  24.265  0.00  0.00    -0.302 N 
ATOM     27  H   SER A   5       6.282  -2.779  24.336  0.00  0.00    +0.150 HD
BRANCH  26  28
ATOM     28  CA  SER A   5       5.646  -4.821  24.420  0.00  0.00    +0.161 C 
BRANCH  28  29
ATOM     29  CB  SER A   5       4.309  -4.411  23.816  0.00  0.00    +0.247 C 
ATOM     30  OG  SER A   5       3.899  -4.804  22.725  0.00  0.00    -0.299 OA
ENDBRANCH  28  29
BRANCH  28  31
ATOM     31  C   SER A   5       5.430  -5.208  25.890  0.00  0.00    +0.185 C 
BRANCH  31  32
ATOM     32  O   SER A   5       6.497  -6.027  26.368  0.00  0.00    -0.393 OA
ATOM     33  H   SER A   5       7.012  -6.293  25.583  0.00  0.00    +0.209 HD
ENDBRANCH  31  32
ENDBRANCH  28  31
ENDBRANCH  26  28
ENDBRANCH  23  24
BRANCH  23  34
ATOM     34  CB  HIS A   4       9.299  -2.260  24.780  0.00  0.00    +0.088 C 
BRANCH  34  35
ATOM     35  CG  HIS A   4       8.742  -0.933  25.149  0.00  0.00    +0.061 A 
ATOM     36  CD2 HIS A   4       9.386   0.281  25.248  0.00  0.00    +0.107 A 
ATOM     37  NE2 HIS A   4       8.428   1.159  25.667  0.00  0.00    -0.351 N 
ATOM     38  HE2 HIS A   4       8.556   2.144  25.855  0.00  0.00    +0.166 HD
ATOM     39  CE1 HIS A   4       7.262   0.458  25.805  0.00  0.00    +0.196 A 
ATOM     40  ND1 HIS A   4       7.422  -0.812  25.510  0.00  0.00    -0.241 NA
ENDBRANCH  34  35
ENDBRANCH  23  34
ENDBRANCH  20  23
ENDBRANCH   1  19
BRANCH   1  41
ATOM     41  CB  LEU A   3       7.804   0.312  19.704  0.00  0.00    +0.034 C 
BRANCH  41  42
ATOM     42  CG  LEU A   3       6.709  -0.198  18.747  0.00  0.00    -0.015 C 
ATOM     43  CD2 LEU A   3       5.726  -1.087  19.514  0.00  0.00    +0.007 C 
ATOM     44  CD1 LEU A   3       5.945   0.949  18.082  0.00  0.00    +0.007 C 
ENDBRANCH  41  42
ENDBRANCH   1  41
TORSDOF 17
ENDMDL
MODEL 7
REMARK VINA RESULT:      -6.4      2.576      6.801
REMARK  Name = AVLHS-mmff94.pdb
REMARK  22 active torsions:
REMARK  status: ('A' for Active; 'I' for Inactive)
REMARK    1  A    between atoms: _1  and  _2
REMARK    2  A    between atoms: _2  and  _3
REMARK    3  A    between atoms: _2  and  _5
REMARK    4  A    between atoms: _11  and  _12
REMARK    5  A    between atoms: _12  and  _13
REMARK    6  A    between atoms: _12  and  _15
REMARK    7  A    between atoms: _15  and  _16
REMARK    8  A    between atoms: _15  and  _17
REMARK    9  A    between atoms: _27  and  _28
REMARK   10  A    between atoms: _28  and  _29
REMARK   11  A    between atoms: _28  and  _31
REMARK   12  A    between atoms: _31  and  _32
REMARK   13  A    between atoms: _32  and  _33
REMARK   14  A    between atoms: _32  and  _34
REMARK   15  A    between atoms: _46  and  _47
REMARK   16  A    between atoms: _47  and  _48
REMARK   17  A    between atoms: _47  and  _50
REMARK   18  A    between atoms: _50  and  _51
REMARK   19  A    between atoms: _63  and  _64
REMARK   20  A    between atoms: _64  and  _65
REMARK   21  A    between atoms: _64  and  _67
REMARK   22  A    between atoms: _67  and  _68
REMARK                            x       y       z     vdW  Elec       q    Type
REMARK                         _______ _______ _______ _____ _____    ______ ____
ROOT
ATOM      1  CA  LEU A   3       5.873  -1.562  23.857  0.00  0.00    +0.159 C 
ENDROOT
BRANCH   1   4
ATOM      2  C   VAL A   2       5.347  -3.979  23.574  0.00  0.00    +0.234 C 
ATOM      3  O   VAL A   2       4.683  -3.804  22.552  0.00  0.00    -0.274 OA
ATOM      4  N   LEU A   3       5.869  -2.950  24.317  0.00  0.00    -0.302 N 
ATOM      5  H   LEU A   3       6.538  -3.164  25.053  0.00  0.00    +0.150 HD
BRANCH   2   6
ATOM      6  CA  VAL A   2       5.666  -5.390  24.110  0.00  0.00    +0.161 C 
BRANCH   6   8
ATOM      7  C   ALA A   1       8.152  -5.388  24.238  0.00  0.00    +0.230 C 
ATOM      8  N   VAL A   2       6.926  -5.234  24.835  0.00  0.00    -0.302 N 
ATOM      9  H   VAL A   2       6.859  -4.885  25.787  0.00  0.00    +0.150 HD
ATOM     10  O   ALA A   1       8.291  -5.731  23.066  0.00  0.00    -0.274 OA
BRANCH   7  11
ATOM     11  CA  ALA A   1       9.350  -5.088  25.161  0.00  0.00    +0.135 C 
ATOM     12  CB  ALA A   1       8.841  -4.642  26.525  0.00  0.00    +0.033 C 
BRANCH  11  13
ATOM     13  N   ALA A   1      10.189  -4.035  24.560  0.00  0.00    -0.320 NA
ATOM     14  H1  ALA A   1      11.121  -4.423  24.400  0.00  0.00    +0.119 HD
ATOM     15  H2  ALA A   1       9.832  -3.866  23.614  0.00  0.00    +0.119 HD
ENDBRANCH  11  13
ENDBRANCH   7  11
ENDBRANCH   6   8
BRANCH   6  16
ATOM     16  CB  VAL A   2       4.530  -5.907  25.026  0.00  0.00    +0.012 C 
ATOM     17  CG2 VAL A   2       5.069  -6.467  26.347  0.00  0.00    +0.009 C 
ATOM     18  CG1 VAL A   2       3.686  -6.991  24.343  0.00  0.00    +0.009 C 
ENDBRANCH   6  16
ENDBRANCH   2   6
ENDBRANCH   1   4
BRANCH   1  19
ATOM     19  C   LEU A   3       7.219  -1.370  23.133  0.00  0.00    +0.234 C 
ATOM     20  N   HIS A   4       7.215  -0.473  22.095  0.00  0.00    -0.302 N 
ATOM     21  H   HIS A   4       6.383   0.061  21.855  0.00  0.00    +0.150 HD
ATOM     22  O   LEU A   3       8.233  -1.982  23.473  0.00  0.00    -0.274 OA
BRANCH  20  23
ATOM     23  CA  HIS A   4       8.439  -0.167  21.351  0.00  0.00    +0.165 C 
BRANCH  23  24
ATOM     24  C   HIS A   4       8.998   1.161  21.886  0.00  0.00    +0.234 C 
ATOM     25  O   HIS A   4      10.203   1.418  21.850  0.00  0.00    -0.274 OA
ATOM     26  N   SER A   5       8.070   2.048  22.382  0.00  0.00    -0.302 N 
ATOM     27  H   SER A   5       7.126   1.702  22.600  0.00  0.00    +0.150 HD
BRANCH  26  28
ATOM     28  CA  SER A   5       8.489   3.301  23.010  0.00  0.00    +0.161 C 
BRANCH  28  29
ATOM     29  CB  SER A   5       8.688   3.102  24.507  0.00  0.00    +0.247 C 
ATOM     30  OG  SER A   5       8.084   2.263  25.174  0.00  0.00    -0.299 OA
ENDBRANCH  28  29
BRANCH  28  31
ATOM     31  C   SER A   5       7.476   4.434  22.790  0.00  0.00    +0.185 C 
BRANCH  31  32
ATOM     32  O   SER A   5       6.487   4.058  21.832  0.00  0.00    -0.393 OA
ATOM     33  H   SER A   5       6.759   4.461  20.985  0.00  0.00    +0.209 HD
ENDBRANCH  31  32
ENDBRANCH  28  31
ENDBRANCH  26  28
ENDBRANCH  23  24
BRANCH  23  34
ATOM     34  CB  HIS A   4       8.180  -0.079  19.841  0.00  0.00    +0.088 C 
BRANCH  34  35
ATOM     35  CG  HIS A   4       6.782   0.346  19.570  0.00  0.00    +0.061 A 
ATOM     36  CD2 HIS A   4       5.828  -0.259  18.783  0.00  0.00    +0.107 A 
ATOM     37  NE2 HIS A   4       4.742   0.567  18.840  0.00  0.00    -0.351 N 
ATOM     38  HE2 HIS A   4       3.858   0.433  18.367  0.00  0.00    +0.166 HD
ATOM     39  CE1 HIS A   4       5.072   1.623  19.644  0.00  0.00    +0.196 A 
ATOM     40  ND1 HIS A   4       6.304   1.524  20.092  0.00  0.00    -0.241 NA
ENDBRANCH  34  35
ENDBRANCH  23  34
ENDBRANCH  20  23
ENDBRANCH   1  19
BRANCH   1  41
ATOM     41  CB  LEU A   3       5.755  -0.576  25.027  0.00  0.00    +0.034 C 
BRANCH  41  42
ATOM     42  CG  LEU A   3       6.072  -1.175  26.411  0.00  0.00    -0.015 C 
ATOM     43  CD2 LEU A   3       7.513  -0.836  26.803  0.00  0.00    +0.007 C 
ATOM     44  CD1 LEU A   3       5.116  -0.665  27.492  0.00  0.00    +0.007 C 
ENDBRANCH  41  42
ENDBRANCH   1  41
TORSDOF 17
ENDMDL
MODEL 8
REMARK VINA RESULT:      -6.3      3.102      5.483
REMARK  Name = AVLHS-mmff94.pdb
REMARK  22 active torsions:
REMARK  status: ('A' for Active; 'I' for Inactive)
REMARK    1  A    between atoms: _1  and  _2
REMARK    2  A    between atoms: _2  and  _3
REMARK    3  A    between atoms: _2  and  _5
REMARK    4  A    between atoms: _11  and  _12
REMARK    5  A    between atoms: _12  and  _13
REMARK    6  A    between atoms: _12  and  _15
REMARK    7  A    between atoms: _15  and  _16
REMARK    8  A    between atoms: _15  and  _17
REMARK    9  A    between atoms: _27  and  _28
REMARK   10  A    between atoms: _28  and  _29
REMARK   11  A    between atoms: _28  and  _31
REMARK   12  A    between atoms: _31  and  _32
REMARK   13  A    between atoms: _32  and  _33
REMARK   14  A    between atoms: _32  and  _34
REMARK   15  A    between atoms: _46  and  _47
REMARK   16  A    between atoms: _47  and  _48
REMARK   17  A    between atoms: _47  and  _50
REMARK   18  A    between atoms: _50  and  _51
REMARK   19  A    between atoms: _63  and  _64
REMARK   20  A    between atoms: _64  and  _65
REMARK   21  A    between atoms: _64  and  _67
REMARK   22  A    between atoms: _67  and  _68
REMARK                            x       y       z     vdW  Elec       q    Type
REMARK                         _______ _______ _______ _____ _____    ______ ____
ROOT
ATOM      1  CA  LEU A   3       7.111   0.216  21.278  0.00  0.00    +0.159 C 
ENDROOT
BRANCH   1   4
ATOM      2  C   VAL A   2       6.943   2.175  22.805  0.00  0.00    +0.234 C 
ATOM      3  O   VAL A   2       5.758   2.383  22.548  0.00  0.00    -0.274 OA
ATOM      4  N   LEU A   3       7.693   1.219  22.168  0.00  0.00    -0.302 N 
ATOM      5  H   LEU A   3       8.613   0.989  22.536  0.00  0.00    +0.150 HD
BRANCH   2   6
ATOM      6  CA  VAL A   2       7.696   2.969  23.892  0.00  0.00    +0.161 C 
BRANCH   6   8
ATOM      7  C   ALA A   1       8.768   0.970  24.916  0.00  0.00    +0.230 C 
ATOM      8  N   VAL A   2       8.859   2.146  24.214  0.00  0.00    -0.302 N 
ATOM      9  H   VAL A   2       9.740   2.422  23.788  0.00  0.00    +0.150 HD
ATOM     10  O   ALA A   1       7.713   0.548  25.385  0.00  0.00    -0.274 OA
BRANCH   7  11
ATOM     11  CA  ALA A   1      10.103   0.214  25.064  0.00  0.00    +0.135 C 
ATOM     12  CB  ALA A   1      11.219   1.022  24.419  0.00  0.00    +0.033 C 
BRANCH  11  13
ATOM     13  N   ALA A   1       9.997  -1.112  24.426  0.00  0.00    -0.320 NA
ATOM     14  H1  ALA A   1       9.352  -1.680  24.978  0.00  0.00    +0.119 HD
ATOM     15  H2  ALA A   1       9.504  -0.981  23.537  0.00  0.00    +0.119 HD
ENDBRANCH  11  13
ENDBRANCH   7  11
ENDBRANCH   6   8
BRANCH   6  16
ATOM     16  CB  VAL A   2       8.102   4.371  23.373  0.00  0.00    +0.012 C 
ATOM     17  CG2 VAL A   2       9.471   4.805  23.911  0.00  0.00    +0.009 C 
ATOM     18  CG1 VAL A   2       7.070   5.444  23.740  0.00  0.00    +0.009 C 
ENDBRANCH   6  16
ENDBRANCH   2   6
ENDBRANCH   1   4
BRANCH   1  19
ATOM     19  C   LEU A   3       7.567  -1.146  21.835  0.00  0.00    +0.234 C 
ATOM     20  N   HIS A   4       6.637  -1.827  22.579  0.00  0.00    -0.302 N 
ATOM     21  H   HIS A   4       5.694  -1.469  22.712  0.00  0.00    +0.150 HD
ATOM     22  O   LEU A   3       8.695  -1.593  21.617  0.00  0.00    -0.274 OA
BRANCH  20  23
ATOM     23  CA  HIS A   4       6.929  -3.152  23.131  0.00  0.00    +0.165 C 
BRANCH  23  24
ATOM     24  C   HIS A   4       5.841  -4.120  22.640  0.00  0.00    +0.234 C 
ATOM     25  O   HIS A   4       5.544  -4.209  21.447  0.00  0.00    -0.274 OA
ATOM     26  N   SER A   5       5.241  -4.892  23.608  0.00  0.00    -0.302 N 
ATOM     27  H   SER A   5       5.355  -4.620  24.594  0.00  0.00    +0.150 HD
BRANCH  26  28
ATOM     28  CA  SER A   5       4.123  -5.776  23.279  0.00  0.00    +0.161 C 
BRANCH  28  29
ATOM     29  CB  SER A   5       2.801  -5.034  23.427  0.00  0.00    +0.247 C 
ATOM     30  OG  SER A   5       1.790  -5.297  22.778  0.00  0.00    -0.299 OA
ENDBRANCH  28  29
BRANCH  28  31
ATOM     31  C   SER A   5       4.091  -7.032  24.161  0.00  0.00    +0.185 C 
BRANCH  31  32
ATOM     32  O   SER A   5       3.022  -7.898  23.782  0.00  0.00    -0.393 OA
ATOM     33  H   SER A   5       2.733  -7.608  22.896  0.00  0.00    +0.209 HD
ENDBRANCH  31  32
ENDBRANCH  28  31
ENDBRANCH  26  28
ENDBRANCH  23  24
BRANCH  23  34
ATOM     34  CB  HIS A   4       6.985  -3.130  24.665  0.00  0.00    +0.088 C 
BRANCH  34  35
ATOM     35  CG  HIS A   4       8.034  -4.053  25.167  0.00  0.00    +0.061 A 
ATOM     36  CD2 HIS A   4       8.004  -4.888  26.263  0.00  0.00    +0.107 A 
ATOM     37  NE2 HIS A   4       9.237  -5.473  26.299  0.00  0.00    -0.351 N 
ATOM     38  HE2 HIS A   4       9.567  -6.139  26.985  0.00  0.00    +0.166 HD
ATOM     39  CE1 HIS A   4       9.956  -4.981  25.245  0.00  0.00    +0.196 A 
ATOM     40  ND1 HIS A   4       9.259  -4.111  24.548  0.00  0.00    -0.241 NA
ENDBRANCH  34  35
ENDBRANCH  23  34
ENDBRANCH  20  23
ENDBRANCH   1  19
BRANCH   1  41
ATOM     41  CB  LEU A   3       7.599   0.387  19.833  0.00  0.00    +0.034 C 
BRANCH  41  42
ATOM     42  CG  LEU A   3       6.480   0.433  18.775  0.00  0.00    -0.015 C 
ATOM     43  CD2 LEU A   3       5.887  -0.966  18.589  0.00  0.00    +0.007 C 
ATOM     44  CD1 LEU A   3       5.366   1.411  19.156  0.00  0.00    +0.007 C 
ENDBRANCH  41  42
ENDBRANCH   1  41
TORSDOF 17
ENDMDL
MODEL 9
REMARK VINA RESULT:      -6.3      2.207      6.254
REMARK  Name = AVLHS-mmff94.pdb
REMARK  22 active torsions:
REMARK  status: ('A' for Active; 'I' for Inactive)
REMARK    1  A    between atoms: _1  and  _2
REMARK    2  A    between atoms: _2  and  _3
REMARK    3  A    between atoms: _2  and  _5
REMARK    4  A    between atoms: _11  and  _12
REMARK    5  A    between atoms: _12  and  _13
REMARK    6  A    between atoms: _12  and  _15
REMARK    7  A    between atoms: _15  and  _16
REMARK    8  A    between atoms: _15  and  _17
REMARK    9  A    between atoms: _27  and  _28
REMARK   10  A    between atoms: _28  and  _29
REMARK   11  A    between atoms: _28  and  _31
REMARK   12  A    between atoms: _31  and  _32
REMARK   13  A    between atoms: _32  and  _33
REMARK   14  A    between atoms: _32  and  _34
REMARK   15  A    between atoms: _46  and  _47
REMARK   16  A    between atoms: _47  and  _48
REMARK   17  A    between atoms: _47  and  _50
REMARK   18  A    between atoms: _50  and  _51
REMARK   19  A    between atoms: _63  and  _64
REMARK   20  A    between atoms: _64  and  _65
REMARK   21  A    between atoms: _64  and  _67
REMARK   22  A    between atoms: _67  and  _68
REMARK                            x       y       z     vdW  Elec       q    Type
REMARK                         _______ _______ _______ _____ _____    ______ ____
ROOT
ATOM      1  CA  LEU A   3       6.030   0.359  25.662  0.00  0.00    +0.159 C 
ENDROOT
BRANCH   1   4
ATOM      2  C   VAL A   2       5.773  -2.020  24.973  0.00  0.00    +0.234 C 
ATOM      3  O   VAL A   2       4.554  -2.028  25.144  0.00  0.00    -0.274 OA
ATOM      4  N   LEU A   3       6.569  -0.948  25.291  0.00  0.00    -0.302 N 
ATOM      5  H   LEU A   3       7.538  -0.944  24.979  0.00  0.00    +0.150 HD
BRANCH   2   6
ATOM      6  CA  VAL A   2       6.522  -3.224  24.365  0.00  0.00    +0.161 C 
BRANCH   6   8
ATOM      7  C   ALA A   1       8.562  -2.552  23.107  0.00  0.00    +0.230 C 
ATOM      8  N   VAL A   2       7.917  -2.795  24.294  0.00  0.00    -0.302 N 
ATOM      9  H   VAL A   2       8.364  -2.565  25.177  0.00  0.00    +0.150 HD
ATOM     10  O   ALA A   1       8.042  -2.737  22.009  0.00  0.00    -0.274 OA
BRANCH   7  11
ATOM     11  CA  ALA A   1      10.000  -2.020  23.263  0.00  0.00    +0.135 C 
ATOM     12  CB  ALA A   1      10.007  -0.850  24.237  0.00  0.00    +0.033 C 
BRANCH  11  13
ATOM     13  N   ALA A   1      10.519  -1.595  21.950  0.00  0.00    -0.320 NA
ATOM     14  H1  ALA A   1       9.956  -2.044  21.225  0.00  0.00    +0.119 HD
ATOM     15  H2  ALA A   1      10.297  -0.599  21.845  0.00  0.00    +0.119 HD
ENDBRANCH  11  13
ENDBRANCH   7  11
ENDBRANCH   6   8
BRANCH   6  16
ATOM     16  CB  VAL A   2       6.347  -4.488  25.243  0.00  0.00    +0.012 C 
ATOM     17  CG2 VAL A   2       7.689  -5.010  25.768  0.00  0.00    +0.009 C 
ATOM     18  CG1 VAL A   2       5.642  -5.622  24.488  0.00  0.00    +0.009 C 
ENDBRANCH   6  16
ENDBRANCH   2   6
ENDBRANCH   1   4
BRANCH   1  19
ATOM     19  C   LEU A   3       6.030   1.188  24.364  0.00  0.00    +0.234 C 
ATOM     20  N   HIS A   4       7.194   1.159  23.638  0.00  0.00    -0.302 N 
ATOM     21  H   HIS A   4       7.986   0.588  23.921  0.00  0.00    +0.150 HD
ATOM     22  O   LEU A   3       5.041   1.830  24.003  0.00  0.00    -0.274 OA
BRANCH  20  23
ATOM     23  CA  HIS A   4       7.311   1.871  22.363  0.00  0.00    +0.165 C 
BRANCH  23  24
ATOM     24  C   HIS A   4       7.472   0.824  21.249  0.00  0.00    +0.234 C 
ATOM     25  O   HIS A   4       8.579   0.390  20.923  0.00  0.00    -0.274 OA
ATOM     26  N   SER A   5       6.307   0.387  20.662  0.00  0.00    -0.302 N 
ATOM     27  H   SER A   5       5.448   0.936  20.804  0.00  0.00    +0.150 HD
BRANCH  26  28
ATOM     28  CA  SER A   5       6.338  -0.532  19.524  0.00  0.00    +0.161 C 
BRANCH  28  29
ATOM     29  CB  SER A   5       5.684   0.110  18.308  0.00  0.00    +0.247 C 
ATOM     30  OG  SER A   5       6.273   0.849  17.521  0.00  0.00    -0.299 OA
ENDBRANCH  28  29
BRANCH  28  31
ATOM     31  C   SER A   5       5.630  -1.861  19.826  0.00  0.00    +0.185 C 
BRANCH  31  32
ATOM     32  O   SER A   5       5.359  -2.582  18.625  0.00  0.00    -0.393 OA
ATOM     33  H   SER A   5       4.469  -2.968  18.731  0.00  0.00    +0.209 HD
ENDBRANCH  31  32
ENDBRANCH  28  31
ENDBRANCH  26  28
ENDBRANCH  23  24
BRANCH  23  34
ATOM     34  CB  HIS A   4       8.493   2.850  22.364  0.00  0.00    +0.088 C 
BRANCH  34  35
ATOM     35  CG  HIS A   4       8.310   3.896  23.403  0.00  0.00    +0.061 A 
ATOM     36  CD2 HIS A   4       7.962   5.220  23.249  0.00  0.00    +0.107 A 
ATOM     37  NE2 HIS A   4       7.982   5.743  24.510  0.00  0.00    -0.351 N 
ATOM     38  HE2 HIS A   4       7.785   6.701  24.768  0.00  0.00    +0.166 HD
ATOM     39  CE1 HIS A   4       8.335   4.736  25.365  0.00  0.00    +0.196 A 
ATOM     40  ND1 HIS A   4       8.551   3.609  24.724  0.00  0.00    -0.241 NA
ENDBRANCH  34  35
ENDBRANCH  23  34
ENDBRANCH  20  23
ENDBRANCH   1  19
BRANCH   1  41
ATOM     41  CB  LEU A   3       6.891   1.047  26.730  0.00  0.00    +0.034 C 
BRANCH  41  42
ATOM     42  CG  LEU A   3       6.097   1.687  27.885  0.00  0.00    -0.015 C 
ATOM     43  CD2 LEU A   3       6.957   1.709  29.152  0.00  0.00    +0.007 C 
ATOM     44  CD1 LEU A   3       5.643   3.110  27.553  0.00  0.00    +0.007 C 
ENDBRANCH  41  42
ENDBRANCH   1  41
TORSDOF 17
ENDMDL
MODEL 10
REMARK VINA RESULT:      -6.3      2.711      5.187
REMARK  Name = AVLHS-mmff94.pdb
REMARK  22 active torsions:
REMARK  status: ('A' for Active; 'I' for Inactive)
REMARK    1  A    between atoms: _1  and  _2
REMARK    2  A    between atoms: _2  and  _3
REMARK    3  A    between atoms: _2  and  _5
REMARK    4  A    between atoms: _11  and  _12
REMARK    5  A    between atoms: _12  and  _13
REMARK    6  A    between atoms: _12  and  _15
REMARK    7  A    between atoms: _15  and  _16
REMARK    8  A    between atoms: _15  and  _17
REMARK    9  A    between atoms: _27  and  _28
REMARK   10  A    between atoms: _28  and  _29
REMARK   11  A    between atoms: _28  and  _31
REMARK   12  A    between atoms: _31  and  _32
REMARK   13  A    between atoms: _32  and  _33
REMARK   14  A    between atoms: _32  and  _34
REMARK   15  A    between atoms: _46  and  _47
REMARK   16  A    between atoms: _47  and  _48
REMARK   17  A    between atoms: _47  and  _50
REMARK   18  A    between atoms: _50  and  _51
REMARK   19  A    between atoms: _63  and  _64
REMARK   20  A    between atoms: _64  and  _65
REMARK   21  A    between atoms: _64  and  _67
REMARK   22  A    between atoms: _67  and  _68
REMARK                            x       y       z     vdW  Elec       q    Type
REMARK                         _______ _______ _______ _____ _____    ______ ____
ROOT
ATOM      1  CA  LEU A   3      10.049   0.679  22.309  0.00  0.00    +0.159 C 
ENDROOT
BRANCH   1   4
ATOM      2  C   VAL A   2       8.019   0.643  20.868  0.00  0.00    +0.234 C 
ATOM      3  O   VAL A   2       8.534  -0.075  20.011  0.00  0.00    -0.274 OA
ATOM      4  N   LEU A   3       8.706   1.131  21.951  0.00  0.00    -0.302 N 
ATOM      5  H   LEU A   3       8.186   1.581  22.702  0.00  0.00    +0.150 HD
BRANCH   2   6
ATOM      6  CA  VAL A   2       6.532   1.050  20.808  0.00  0.00    +0.161 C 
BRANCH   6   8
ATOM      7  C   ALA A   1       6.063   2.840  22.473  0.00  0.00    +0.230 C 
ATOM      8  N   VAL A   2       6.513   2.446  21.237  0.00  0.00    -0.302 N 
ATOM      9  H   VAL A   2       6.964   3.115  20.619  0.00  0.00    +0.150 HD
ATOM     10  O   ALA A   1       5.581   2.060  23.292  0.00  0.00    -0.274 OA
BRANCH   7  11
ATOM     11  CA  ALA A   1       6.217   4.347  22.755  0.00  0.00    +0.135 C 
ATOM     12  CB  ALA A   1       4.853   5.020  22.683  0.00  0.00    +0.033 C 
BRANCH  11  13
ATOM     13  N   ALA A   1       7.133   4.947  21.767  0.00  0.00    -0.320 NA
ATOM     14  H1  ALA A   1       6.570   5.377  21.031  0.00  0.00    +0.119 HD
ATOM     15  H2  ALA A   1       7.588   5.745  22.222  0.00  0.00    +0.119 HD
ENDBRANCH  11  13
ENDBRANCH   7  11
ENDBRANCH   6   8
BRANCH   6  16
ATOM     16  CB  VAL A   2       5.965   0.874  19.378  0.00  0.00    +0.012 C 
ATOM     17  CG2 VAL A   2       4.672   1.671  19.172  0.00  0.00    +0.009 C 
ATOM     18  CG1 VAL A   2       5.692  -0.597  19.041  0.00  0.00    +0.009 C 
ENDBRANCH   6  16
ENDBRANCH   2   6
ENDBRANCH   1   4
BRANCH   1  19
ATOM     19  C   LEU A   3       9.879  -0.770  22.803  0.00  0.00    +0.234 C 
ATOM     20  N   HIS A   4       8.984  -0.950  23.827  0.00  0.00    -0.302 N 
ATOM     21  H   HIS A   4       8.438  -0.177  24.200  0.00  0.00    +0.150 HD
ATOM     22  O   LEU A   3      10.506  -1.706  22.302  0.00  0.00    -0.274 OA
BRANCH  20  23
ATOM     23  CA  HIS A   4       8.699  -2.283  24.362  0.00  0.00    +0.165 C 
BRANCH  23  24
ATOM     24  C   HIS A   4       7.468  -2.835  23.623  0.00  0.00    +0.234 C 
ATOM     25  O   HIS A   4       6.533  -2.107  23.288  0.00  0.00    -0.274 OA
ATOM     26  N   SER A   5       7.491  -4.182  23.341  0.00  0.00    -0.302 N 
ATOM     27  H   SER A   5       8.171  -4.777  23.834  0.00  0.00    +0.150 HD
BRANCH  26  28
ATOM     28  CA  SER A   5       6.336  -4.842  22.732  0.00  0.00    +0.161 C 
BRANCH  28  29
ATOM     29  CB  SER A   5       5.626  -5.716  23.757  0.00  0.00    +0.247 C 
ATOM     30  OG  SER A   5       4.545  -6.268  23.557  0.00  0.00    -0.299 OA
ENDBRANCH  28  29
BRANCH  28  31
ATOM     31  C   SER A   5       6.726  -5.707  21.525  0.00  0.00    +0.185 C 
BRANCH  31  32
ATOM     32  O   SER A   5       5.569  -6.223  20.869  0.00  0.00    -0.393 OA
ATOM     33  H   SER A   5       4.922  -6.425  21.571  0.00  0.00    +0.209 HD
ENDBRANCH  31  32
ENDBRANCH  28  31
ENDBRANCH  26  28
ENDBRANCH  23  24
BRANCH  23  34
ATOM     34  CB  HIS A   4       8.454  -2.249  25.876  0.00  0.00    +0.088 C 
BRANCH  34  35
ATOM     35  CG  HIS A   4       8.189  -3.615  26.398  0.00  0.00    +0.061 A 
ATOM     36  CD2 HIS A   4       9.050  -4.684  26.507  0.00  0.00    +0.107 A 
ATOM     37  NE2 HIS A   4       8.289  -5.706  26.999  0.00  0.00    -0.351 N 
ATOM     38  HE2 HIS A   4       8.601  -6.648  27.193  0.00  0.00    +0.166 HD
ATOM     39  CE1 HIS A   4       7.020  -5.227  27.166  0.00  0.00    +0.196 A 
ATOM     40  ND1 HIS A   4       6.924  -3.969  26.800  0.00  0.00    -0.241 NA
ENDBRANCH  34  35
ENDBRANCH  23  34
ENDBRANCH  20  23
ENDBRANCH   1  19
BRANCH   1  41
ATOM     41  CB  LEU A   3      10.665   1.547  23.414  0.00  0.00    +0.034 C 
BRANCH  41  42
ATOM     42  CG  LEU A   3      10.322   3.046  23.324  0.00  0.00    -0.015 C 
ATOM     43  CD2 LEU A   3       9.348   3.421  24.445  0.00  0.00    +0.007 C 
ATOM     44  CD1 LEU A   3      11.569   3.929  23.416  0.00  0.00    +0.007 C 
ENDBRANCH  41  42
ENDBRANCH   1  41
TORSDOF 17
ENDMDL
MODEL 11
REMARK VINA RESULT:      -6.3      2.011      3.053
REMARK  Name = AVLHS-mmff94.pdb
REMARK  22 active torsions:
REMARK  status: ('A' for Active; 'I' for Inactive)
REMARK    1  A    between atoms: _1  and  _2
REMARK    2  A    between atoms: _2  and  _3
REMARK    3  A    between atoms: _2  and  _5
REMARK    4  A    between atoms: _11  and  _12
REMARK    5  A    between atoms: _12  and  _13
REMARK    6  A    between atoms: _12  and  _15
REMARK    7  A    between atoms: _15  and  _16
REMARK    8  A    between atoms: _15  and  _17
REMARK    9  A    between atoms: _27  and  _28
REMARK   10  A    between atoms: _28  and  _29
REMARK   11  A    between atoms: _28  and  _31
REMARK   12  A    between atoms: _31  and  _32
REMARK   13  A    between atoms: _32  and  _33
REMARK   14  A    between atoms: _32  and  _34
REMARK   15  A    between atoms: _46  and  _47
REMARK   16  A    between atoms: _47  and  _48
REMARK   17  A    between atoms: _47  and  _50
REMARK   18  A    between atoms: _50  and  _51
REMARK   19  A    between atoms: _63  and  _64
REMARK   20  A    between atoms: _64  and  _65
REMARK   21  A    between atoms: _64  and  _67
REMARK   22  A    between atoms: _67  and  _68
REMARK                            x       y       z     vdW  Elec       q    Type
REMARK                         _______ _______ _______ _____ _____    ______ ____
ROOT
ATOM      1  CA  LEU A   3       8.866  -3.106  25.554  0.00  0.00    +0.159 C 
ENDROOT
BRANCH   1   4
ATOM      2  C   VAL A   2       9.083  -0.644  25.250  0.00  0.00    +0.234 C 
ATOM      3  O   VAL A   2      10.099  -0.732  24.560  0.00  0.00    -0.274 OA
ATOM      4  N   LEU A   3       8.485  -1.725  25.847  0.00  0.00    -0.302 N 
ATOM      5  H   LEU A   3       7.565  -1.610  26.266  0.00  0.00    +0.150 HD
BRANCH   2   6
ATOM      6  CA  VAL A   2       8.374   0.704  25.494  0.00  0.00    +0.161 C 
BRANCH   6   8
ATOM      7  C   ALA A   1       8.551   2.644  23.944  0.00  0.00    +0.230 C 
ATOM      8  N   VAL A   2       8.279   1.318  24.171  0.00  0.00    -0.302 N 
ATOM      9  H   VAL A   2       8.117   0.687  23.391  0.00  0.00    +0.150 HD
ATOM     10  O   ALA A   1       8.832   3.436  24.842  0.00  0.00    -0.274 OA
BRANCH   7  11
ATOM     11  CA  ALA A   1       8.480   3.063  22.463  0.00  0.00    +0.135 C 
ATOM     12  CB  ALA A   1       7.028   3.079  22.008  0.00  0.00    +0.033 C 
BRANCH  11  13
ATOM     13  N   ALA A   1       9.261   2.119  21.641  0.00  0.00    -0.320 NA
ATOM     14  H1  ALA A   1       9.413   1.270  22.189  0.00  0.00    +0.119 HD
ATOM     15  H2  ALA A   1       8.653   1.808  20.876  0.00  0.00    +0.119 HD
ENDBRANCH  11  13
ENDBRANCH   7  11
ENDBRANCH   6   8
BRANCH   6  16
ATOM     16  CB  VAL A   2       6.981   0.491  26.135  0.00  0.00    +0.012 C 
ATOM     17  CG2 VAL A   2       5.865   0.464  25.085  0.00  0.00    +0.009 C 
ATOM     18  CG1 VAL A   2       6.652   1.571  27.173  0.00  0.00    +0.009 C 
ENDBRANCH   6  16
ENDBRANCH   2   6
ENDBRANCH   1   4
BRANCH   1  19
ATOM     19  C   LEU A   3       8.368  -3.376  24.122  0.00  0.00    +0.234 C 
ATOM     20  N   HIS A   4       7.452  -2.480  23.630  0.00  0.00    -0.302 N 
ATOM     21  H   HIS A   4       7.160  -1.667  24.166  0.00  0.00    +0.150 HD
ATOM     22  O   LEU A   3       8.776  -4.334  23.462  0.00  0.00    -0.274 OA
BRANCH  20  23
ATOM     23  CA  HIS A   4       6.931  -2.599  22.266  0.00  0.00    +0.165 C 
BRANCH  23  24
ATOM     24  C   HIS A   4       7.179  -1.263  21.547  0.00  0.00    +0.234 C 
ATOM     25  O   HIS A   4       8.110  -0.520  21.862  0.00  0.00    -0.274 OA
ATOM     26  N   SER A   5       6.314  -0.964  20.518  0.00  0.00    -0.302 N 
ATOM     27  H   SER A   5       5.433  -1.492  20.447  0.00  0.00    +0.150 HD
BRANCH  26  28
ATOM     28  CA  SER A   5       6.386   0.322  19.826  0.00  0.00    +0.161 C 
BRANCH  28  29
ATOM     29  CB  SER A   5       5.011   0.722  19.308  0.00  0.00    +0.247 C 
ATOM     30  OG  SER A   5       4.577   1.872  19.331  0.00  0.00    -0.299 OA
ENDBRANCH  28  29
BRANCH  28  31
ATOM     31  C   SER A   5       7.373   0.299  18.650  0.00  0.00    +0.185 C 
BRANCH  31  32
ATOM     32  O   SER A   5       6.868   1.042  17.541  0.00  0.00    -0.393 OA
ATOM     33  H   SER A   5       7.055   1.981  17.731  0.00  0.00    +0.209 HD
ENDBRANCH  31  32
ENDBRANCH  28  31
ENDBRANCH  26  28
ENDBRANCH  23  24
BRANCH  23  34
ATOM     34  CB  HIS A   4       5.438  -2.953  22.256  0.00  0.00    +0.088 C 
BRANCH  34  35
ATOM     35  CG  HIS A   4       5.240  -4.408  22.480  0.00  0.00    +0.061 A 
ATOM     36  CD2 HIS A   4       6.035  -5.462  22.090  0.00  0.00    +0.107 A 
ATOM     37  NE2 HIS A   4       5.371  -6.582  22.503  0.00  0.00    -0.351 N 
ATOM     38  HE2 HIS A   4       5.667  -7.540  22.371  0.00  0.00    +0.166 HD
ATOM     39  CE1 HIS A   4       4.220  -6.173  23.115  0.00  0.00    +0.196 A 
ATOM     40  ND1 HIS A   4       4.106  -4.864  23.107  0.00  0.00    -0.241 NA
ENDBRANCH  34  35
ENDBRANCH  23  34
ENDBRANCH  20  23
ENDBRANCH   1  19
BRANCH   1  41
ATOM     41  CB  LEU A   3       8.220  -4.094  26.534  0.00  0.00    +0.034 C 
BRANCH  41  42
ATOM     42  CG  LEU A   3       6.704  -4.292  26.346  0.00  0.00    -0.015 C 
ATOM     43  CD2 LEU A   3       6.406  -5.769  26.071  0.00  0.00    +0.007 C 
ATOM     44  CD1 LEU A   3       5.906  -3.831  27.568  0.00  0.00    +0.007 C 
ENDBRANCH  41  42
ENDBRANCH   1  41
TORSDOF 17
ENDMDL
MODEL 12
REMARK VINA RESULT:      -6.3      2.658      7.857
REMARK  Name = AVLHS-mmff94.pdb
REMARK  22 active torsions:
REMARK  status: ('A' for Active; 'I' for Inactive)
REMARK    1  A    between atoms: _1  and  _2
REMARK    2  A    between atoms: _2  and  _3
REMARK    3  A    between atoms: _2  and  _5
REMARK    4  A    between atoms: _11  and  _12
REMARK    5  A    between atoms: _12  and  _13
REMARK    6  A    between atoms: _12  and  _15
REMARK    7  A    between atoms: _15  and  _16
REMARK    8  A    between atoms: _15  and  _17
REMARK    9  A    between atoms: _27  and  _28
REMARK   10  A    between atoms: _28  and  _29
REMARK   11  A    between atoms: _28  and  _31
REMARK   12  A    between atoms: _31  and  _32
REMARK   13  A    between atoms: _32  and  _33
REMARK   14  A    between atoms: _32  and  _34
REMARK   15  A    between atoms: _46  and  _47
REMARK   16  A    between atoms: _47  and  _48
REMARK   17  A    between atoms: _47  and  _50
REMARK   18  A    between atoms: _50  and  _51
REMARK   19  A    between atoms: _63  and  _64
REMARK   20  A    between atoms: _64  and  _65
REMARK   21  A    between atoms: _64  and  _67
REMARK   22  A    between atoms: _67  and  _68
REMARK                            x       y       z     vdW  Elec       q    Type
REMARK                         _______ _______ _______ _____ _____    ______ ____
ROOT
ATOM      1  CA  LEU A   3       9.016  -0.411  21.331  0.00  0.00    +0.159 C 
ENDROOT
BRANCH   1   4
ATOM      2  C   VAL A   2       7.889  -2.216  22.626  0.00  0.00    +0.234 C 
ATOM      3  O   VAL A   2       7.278  -1.432  23.352  0.00  0.00    -0.274 OA
ATOM      4  N   LEU A   3       8.817  -1.812  21.698  0.00  0.00    -0.302 N 
ATOM      5  H   LEU A   3       9.165  -2.490  21.023  0.00  0.00    +0.150 HD
BRANCH   2   6
ATOM      6  CA  VAL A   2       7.653  -3.739  22.684  0.00  0.00    +0.161 C 
BRANCH   6   8
ATOM      7  C   ALA A   1       8.287  -4.981  24.746  0.00  0.00    +0.230 C 
ATOM      8  N   VAL A   2       7.519  -4.039  24.108  0.00  0.00    -0.302 N 
ATOM      9  H   VAL A   2       6.907  -3.428  24.642  0.00  0.00    +0.150 HD
ATOM     10  O   ALA A   1       9.101  -5.692  24.161  0.00  0.00    -0.274 OA
BRANCH   7  11
ATOM     11  CA  ALA A   1       8.047  -5.072  26.266  0.00  0.00    +0.135 C 
ATOM     12  CB  ALA A   1       6.976  -4.069  26.673  0.00  0.00    +0.033 C 
BRANCH  11  13
ATOM     13  N   ALA A   1       9.305  -4.795  26.985  0.00  0.00    -0.320 NA
ATOM     14  H1  ALA A   1       9.310  -3.808  27.249  0.00  0.00    +0.119 HD
ATOM     15  H2  ALA A   1       9.253  -5.286  27.884  0.00  0.00    +0.119 HD
ENDBRANCH  11  13
ENDBRANCH   7  11
ENDBRANCH   6   8
BRANCH   6  16
ATOM     16  CB  VAL A   2       6.387  -4.136  21.886  0.00  0.00    +0.012 C 
ATOM     17  CG2 VAL A   2       5.123  -4.081  22.752  0.00  0.00    +0.009 C 
ATOM     18  CG1 VAL A   2       6.504  -5.539  21.278  0.00  0.00    +0.009 C 
ENDBRANCH   6  16
ENDBRANCH   2   6
ENDBRANCH   1   4
BRANCH   1  19
ATOM     19  C   LEU A   3       9.518   0.283  22.611  0.00  0.00    +0.234 C 
ATOM     20  N   HIS A   4       8.682   1.235  23.140  0.00  0.00    -0.302 N 
ATOM     21  H   HIS A   4       7.771   1.431  22.733  0.00  0.00    +0.150 HD
ATOM     22  O   LEU A   3      10.599  -0.006  23.127  0.00  0.00    -0.274 OA
BRANCH  20  23
ATOM     23  CA  HIS A   4       9.022   1.940  24.378  0.00  0.00    +0.165 C 
BRANCH  23  24
ATOM     24  C   HIS A   4       8.214   1.304  25.522  0.00  0.00    +0.234 C 
ATOM     25  O   HIS A   4       8.492   0.191  25.971  0.00  0.00    -0.274 OA
ATOM     26  N   SER A   5       7.182   2.064  26.024  0.00  0.00    -0.302 N 
ATOM     27  H   SER A   5       6.851   2.869  25.474  0.00  0.00    +0.150 HD
BRANCH  26  28
ATOM     28  CA  SER A   5       6.280   1.528  27.043  0.00  0.00    +0.161 C 
BRANCH  28  29
ATOM     29  CB  SER A   5       4.888   1.321  26.460  0.00  0.00    +0.247 C 
ATOM     30  OG  SER A   5       4.661   1.174  25.260  0.00  0.00    -0.299 OA
ENDBRANCH  28  29
BRANCH  28  31
ATOM     31  C   SER A   5       6.174   2.443  28.271  0.00  0.00    +0.185 C 
BRANCH  31  32
ATOM     32  O   SER A   5       7.456   2.941  28.652  0.00  0.00    -0.393 OA
ATOM     33  H   SER A   5       8.031   2.846  27.869  0.00  0.00    +0.209 HD
ENDBRANCH  31  32
ENDBRANCH  28  31
ENDBRANCH  26  28
ENDBRANCH  23  24
BRANCH  23  34
ATOM     34  CB  HIS A   4       8.729   3.443  24.276  0.00  0.00    +0.088 C 
BRANCH  34  35
ATOM     35  CG  HIS A   4       9.946   4.189  23.864  0.00  0.00    +0.061 A 
ATOM     36  CD2 HIS A   4      10.134   5.549  23.754  0.00  0.00    +0.107 A 
ATOM     37  NE2 HIS A   4      11.410   5.696  23.290  0.00  0.00    -0.351 N 
ATOM     38  HE2 HIS A   4      11.878   6.569  23.084  0.00  0.00    +0.166 HD
ATOM     39  CE1 HIS A   4      11.938   4.444  23.139  0.00  0.00    +0.196 A 
ATOM     40  ND1 HIS A   4      11.072   3.511  23.466  0.00  0.00    -0.241 NA
ENDBRANCH  34  35
ENDBRANCH  23  34
ENDBRANCH  20  23
ENDBRANCH   1  19
BRANCH   1  41
ATOM     41  CB  LEU A   3       7.712   0.241  20.852  0.00  0.00    +0.034 C 
BRANCH  41  42
ATOM     42  CG  LEU A   3       7.170  -0.306  19.517  0.00  0.00    -0.015 C 
ATOM     43  CD2 LEU A   3       5.881  -1.095  19.768  0.00  0.00    +0.007 C 
ATOM     44  CD1 LEU A   3       6.895   0.810  18.506  0.00  0.00    +0.007 C 
ENDBRANCH  41  42
ENDBRANCH   1  41
TORSDOF 17
ENDMDL
MODEL 13
REMARK VINA RESULT:      -6.3      2.923      7.653
REMARK  Name = AVLHS-mmff94.pdb
REMARK  22 active torsions:
REMARK  status: ('A' for Active; 'I' for Inactive)
REMARK    1  A    between atoms: _1  and  _2
REMARK    2  A    between atoms: _2  and  _3
REMARK    3  A    between atoms: _2  and  _5
REMARK    4  A    between atoms: _11  and  _12
REMARK    5  A    between atoms: _12  and  _13
REMARK    6  A    between atoms: _12  and  _15
REMARK    7  A    between atoms: _15  and  _16
REMARK    8  A    between atoms: _15  and  _17
REMARK    9  A    between atoms: _27  and  _28
REMARK   10  A    between atoms: _28  and  _29
REMARK   11  A    between atoms: _28  and  _31
REMARK   12  A    between atoms: _31  and  _32
REMARK   13  A    between atoms: _32  and  _33
REMARK   14  A    between atoms: _32  and  _34
REMARK   15  A    between atoms: _46  and  _47
REMARK   16  A    between atoms: _47  and  _48
REMARK   17  A    between atoms: _47  and  _50
REMARK   18  A    between atoms: _50  and  _51
REMARK   19  A    between atoms: _63  and  _64
REMARK   20  A    between atoms: _64  and  _65
REMARK   21  A    between atoms: _64  and  _67
REMARK   22  A    between atoms: _67  and  _68
REMARK                            x       y       z     vdW  Elec       q    Type
REMARK                         _______ _______ _______ _____ _____    ______ ____
ROOT
ATOM      1  CA  LEU A   3       7.361  -2.021  21.753  0.00  0.00    +0.159 C 
ENDROOT
BRANCH   1   4
ATOM      2  C   VAL A   2       6.439  -4.206  22.511  0.00  0.00    +0.234 C 
ATOM      3  O   VAL A   2       7.119  -4.865  21.725  0.00  0.00    -0.274 OA
ATOM      4  N   LEU A   3       6.421  -2.833  22.522  0.00  0.00    -0.302 N 
ATOM      5  H   LEU A   3       5.966  -2.353  23.295  0.00  0.00    +0.150 HD
BRANCH   2   6
ATOM      6  CA  VAL A   2       5.545  -4.873  23.577  0.00  0.00    +0.161 C 
BRANCH   6   8
ATOM      7  C   ALA A   1       6.257  -5.476  25.884  0.00  0.00    +0.230 C 
ATOM      8  N   VAL A   2       6.201  -4.577  24.848  0.00  0.00    -0.302 N 
ATOM      9  H   VAL A   2       6.727  -3.709  24.894  0.00  0.00    +0.150 HD
ATOM     10  O   ALA A   1       5.706  -6.574  25.852  0.00  0.00    -0.274 OA
BRANCH   7  11
ATOM     11  CA  ALA A   1       7.077  -4.996  27.098  0.00  0.00    +0.135 C 
ATOM     12  CB  ALA A   1       8.378  -4.370  26.618  0.00  0.00    +0.033 C 
BRANCH  11  13
ATOM     13  N   ALA A   1       7.358  -6.136  27.991  0.00  0.00    -0.320 NA
ATOM     14  H1  ALA A   1       7.310  -6.994  27.437  0.00  0.00    +0.119 HD
ATOM     15  H2  ALA A   1       8.346  -6.075  28.258  0.00  0.00    +0.119 HD
ENDBRANCH  11  13
ENDBRANCH   7  11
ENDBRANCH   6   8
BRANCH   6  16
ATOM     16  CB  VAL A   2       4.103  -4.311  23.524  0.00  0.00    +0.012 C 
ATOM     17  CG2 VAL A   2       3.755  -3.506  24.781  0.00  0.00    +0.009 C 
ATOM     18  CG1 VAL A   2       3.057  -5.419  23.347  0.00  0.00    +0.009 C 
ENDBRANCH   6  16
ENDBRANCH   2   6
ENDBRANCH   1   4
BRANCH   1  19
ATOM     19  C   LEU A   3       8.565  -1.789  22.685  0.00  0.00    +0.234 C 
ATOM     20  N   HIS A   4       8.325  -1.002  23.784  0.00  0.00    -0.302 N 
ATOM     21  H   HIS A   4       7.397  -0.637  23.986  0.00  0.00    +0.150 HD
ATOM     22  O   LEU A   3       9.670  -2.285  22.457  0.00  0.00    -0.274 OA
BRANCH  20  23
ATOM     23  CA  HIS A   4       9.374  -0.737  24.772  0.00  0.00    +0.165 C 
BRANCH  23  24
ATOM     24  C   HIS A   4       8.692  -0.453  26.120  0.00  0.00    +0.234 C 
ATOM     25  O   HIS A   4       9.177  -0.840  27.185  0.00  0.00    -0.274 OA
ATOM     26  N   SER A   5       7.526   0.276  26.063  0.00  0.00    -0.302 N 
ATOM     27  H   SER A   5       7.051   0.373  25.156  0.00  0.00    +0.150 HD
BRANCH  26  28
ATOM     28  CA  SER A   5       6.735   0.522  27.268  0.00  0.00    +0.161 C 
BRANCH  28  29
ATOM     29  CB  SER A   5       5.282   0.130  27.036  0.00  0.00    +0.247 C 
ATOM     30  OG  SER A   5       4.768   0.028  25.923  0.00  0.00    -0.299 OA
ENDBRANCH  28  29
BRANCH  28  31
ATOM     31  C   SER A   5       6.788   1.991  27.713  0.00  0.00    +0.185 C 
BRANCH  31  32
ATOM     32  O   SER A   5       7.550   2.777  26.798  0.00  0.00    -0.393 OA
ATOM     33  H   SER A   5       7.198   3.685  26.857  0.00  0.00    +0.209 HD
ENDBRANCH  31  32
ENDBRANCH  28  31
ENDBRANCH  26  28
ENDBRANCH  23  24
BRANCH  23  34
ATOM     34  CB  HIS A   4      10.264   0.441  24.354  0.00  0.00    +0.088 C 
BRANCH  34  35
ATOM     35  CG  HIS A   4       9.575   1.293  23.351  0.00  0.00    +0.061 A 
ATOM     36  CD2 HIS A   4       9.923   1.547  22.043  0.00  0.00    +0.107 A 
ATOM     37  NE2 HIS A   4       8.984   2.429  21.589  0.00  0.00    -0.351 N 
ATOM     38  HE2 HIS A   4       8.941   2.839  20.666  0.00  0.00    +0.166 HD
ATOM     39  CE1 HIS A   4       8.119   2.672  22.619  0.00  0.00    +0.196 A 
ATOM     40  ND1 HIS A   4       8.456   2.008  23.702  0.00  0.00    -0.241 NA
ENDBRANCH  34  35
ENDBRANCH  23  34
ENDBRANCH  20  23
ENDBRANCH   1  19
BRANCH   1  41
ATOM     41  CB  LEU A   3       6.745  -0.679  21.338  0.00  0.00    +0.034 C 
BRANCH  41  42
ATOM     42  CG  LEU A   3       6.602  -0.476  19.818  0.00  0.00    -0.015 C 
ATOM     43  CD2 LEU A   3       5.576   0.626  19.538  0.00  0.00    +0.007 C 
ATOM     44  CD1 LEU A   3       7.934  -0.112  19.157  0.00  0.00    +0.007 C 
ENDBRANCH  41  42
ENDBRANCH   1  41
TORSDOF 17
ENDMDL
MODEL 14
REMARK VINA RESULT:      -6.2      3.064      7.038
REMARK  Name = AVLHS-mmff94.pdb
REMARK  22 active torsions:
REMARK  status: ('A' for Active; 'I' for Inactive)
REMARK    1  A    between atoms: _1  and  _2
REMARK    2  A    between atoms: _2  and  _3
REMARK    3  A    between atoms: _2  and  _5
REMARK    4  A    between atoms: _11  and  _12
REMARK    5  A    between atoms: _12  and  _13
REMARK    6  A    between atoms: _12  and  _15
REMARK    7  A    between atoms: _15  and  _16
REMARK    8  A    between atoms: _15  and  _17
REMARK    9  A    between atoms: _27  and  _28
REMARK   10  A    between atoms: _28  and  _29
REMARK   11  A    between atoms: _28  and  _31
REMARK   12  A    between atoms: _31  and  _32
REMARK   13  A    between atoms: _32  and  _33
REMARK   14  A    between atoms: _32  and  _34
REMARK   15  A    between atoms: _46  and  _47
REMARK   16  A    between atoms: _47  and  _48
REMARK   17  A    between atoms: _47  and  _50
REMARK   18  A    between atoms: _50  and  _51
REMARK   19  A    between atoms: _63  and  _64
REMARK   20  A    between atoms: _64  and  _65
REMARK   21  A    between atoms: _64  and  _67
REMARK   22  A    between atoms: _67  and  _68
REMARK                            x       y       z     vdW  Elec       q    Type
REMARK                         _______ _______ _______ _____ _____    ______ ____
ROOT
ATOM      1  CA  LEU A   3       5.325  -2.702  26.146  0.00  0.00    +0.159 C 
ENDROOT
BRANCH   1   4
ATOM      2  C   VAL A   2       3.614  -3.892  24.784  0.00  0.00    +0.234 C 
ATOM      3  O   VAL A   2       2.663  -3.384  25.378  0.00  0.00    -0.274 OA
ATOM      4  N   LEU A   3       4.921  -3.695  25.153  0.00  0.00    -0.302 N 
ATOM      5  H   LEU A   3       5.661  -4.010  24.529  0.00  0.00    +0.150 HD
BRANCH   2   6
ATOM      6  CA  VAL A   2       3.419  -4.794  23.548  0.00  0.00    +0.161 C 
BRANCH   6   8
ATOM      7  C   ALA A   1       5.555  -4.310  22.365  0.00  0.00    +0.230 C 
ATOM      8  N   VAL A   2       4.774  -5.143  23.127  0.00  0.00    -0.302 N 
ATOM      9  H   VAL A   2       5.167  -5.991  23.526  0.00  0.00    +0.150 HD
ATOM     10  O   ALA A   1       5.156  -3.235  21.921  0.00  0.00    -0.274 OA
BRANCH   7  11
ATOM     11  CA  ALA A   1       6.983  -4.833  22.112  0.00  0.00    +0.135 C 
ATOM     12  CB  ALA A   1       6.938  -6.334  21.866  0.00  0.00    +0.033 C 
BRANCH  11  13
ATOM     13  N   ALA A   1       7.836  -4.532  23.277  0.00  0.00    -0.320 NA
ATOM     14  H1  ALA A   1       7.247  -4.121  24.005  0.00  0.00    +0.119 HD
ATOM     15  H2  ALA A   1       8.126  -5.430  23.679  0.00  0.00    +0.119 HD
ENDBRANCH  11  13
ENDBRANCH   7  11
ENDBRANCH   6   8
BRANCH   6  16
ATOM     16  CB  VAL A   2       2.580  -6.047  23.901  0.00  0.00    +0.012 C 
ATOM     17  CG2 VAL A   2       3.449  -7.178  24.463  0.00  0.00    +0.009 C 
ATOM     18  CG1 VAL A   2       1.804  -6.581  22.691  0.00  0.00    +0.009 C 
ENDBRANCH   6  16
ENDBRANCH   2   6
ENDBRANCH   1   4
BRANCH   1  19
ATOM     19  C   LEU A   3       5.767  -1.467  25.339  0.00  0.00    +0.234 C 
ATOM     20  N   HIS A   4       6.962  -1.584  24.676  0.00  0.00    -0.302 N 
ATOM     21  H   HIS A   4       7.495  -2.451  24.685  0.00  0.00    +0.150 HD
ATOM     22  O   LEU A   3       5.082  -0.443  25.291  0.00  0.00    -0.274 OA
BRANCH  20  23
ATOM     23  CA  HIS A   4       7.476  -0.498  23.839  0.00  0.00    +0.165 C 
BRANCH  23  24
ATOM     24  C   HIS A   4       7.647  -1.041  22.411  0.00  0.00    +0.234 C 
ATOM     25  O   HIS A   4       8.483  -1.906  22.143  0.00  0.00    -0.274 OA
ATOM     26  N   SER A   5       6.796  -0.520  21.463  0.00  0.00    -0.302 N 
ATOM     27  H   SER A   5       6.287   0.347  21.683  0.00  0.00    +0.150 HD
BRANCH  26  28
ATOM     28  CA  SER A   5       6.929  -0.883  20.052  0.00  0.00    +0.161 C 
BRANCH  28  29
ATOM     29  CB  SER A   5       7.685   0.202  19.296  0.00  0.00    +0.247 C 
ATOM     30  OG  SER A   5       7.435   0.532  18.138  0.00  0.00    -0.299 OA
ENDBRANCH  28  29
BRANCH  28  31
ATOM     31  C   SER A   5       5.569  -1.106  19.375  0.00  0.00    +0.185 C 
BRANCH  31  32
ATOM     32  O   SER A   5       4.827   0.110  19.301  0.00  0.00    -0.393 OA
ATOM     33  H   SER A   5       4.217   0.106  20.063  0.00  0.00    +0.209 HD
ENDBRANCH  31  32
ENDBRANCH  28  31
ENDBRANCH  26  28
ENDBRANCH  23  24
BRANCH  23  34
ATOM     34  CB  HIS A   4       8.804   0.054  24.374  0.00  0.00    +0.088 C 
BRANCH  34  35
ATOM     35  CG  HIS A   4       9.247   1.227  23.577  0.00  0.00    +0.061 A 
ATOM     36  CD2 HIS A   4      10.017   1.260  22.435  0.00  0.00    +0.107 A 
ATOM     37  NE2 HIS A   4      10.167   2.587  22.145  0.00  0.00    -0.351 N 
ATOM     38  HE2 HIS A   4      10.688   2.978  21.372  0.00  0.00    +0.166 HD
ATOM     39  CE1 HIS A   4       9.496   3.294  23.104  0.00  0.00    +0.196 A 
ATOM     40  ND1 HIS A   4       8.938   2.500  23.991  0.00  0.00    -0.241 NA
ENDBRANCH  34  35
ENDBRANCH  23  34
ENDBRANCH  20  23
ENDBRANCH   1  19
BRANCH   1  41
ATOM     41  CB  LEU A   3       6.483  -3.208  27.017  0.00  0.00    +0.034 C 
BRANCH  41  42
ATOM     42  CG  LEU A   3       6.846  -4.691  26.811  0.00  0.00    -0.015 C 
ATOM     43  CD2 LEU A   3       8.368  -4.845  26.736  0.00  0.00    +0.007 C 
ATOM     44  CD1 LEU A   3       6.299  -5.579  27.931  0.00  0.00    +0.007 C 
ENDBRANCH  41  42
ENDBRANCH   1  41
TORSDOF 17
ENDMDL
MODEL 15
REMARK VINA RESULT:      -6.2      3.089      7.266
REMARK  Name = AVLHS-mmff94.pdb
REMARK  22 active torsions:
REMARK  status: ('A' for Active; 'I' for Inactive)
REMARK    1  A    between atoms: _1  and  _2
REMARK    2  A    between atoms: _2  and  _3
REMARK    3  A    between atoms: _2  and  _5
REMARK    4  A    between atoms: _11  and  _12
REMARK    5  A    between atoms: _12  and  _13
REMARK    6  A    between atoms: _12  and  _15
REMARK    7  A    between atoms: _15  and  _16
REMARK    8  A    between atoms: _15  and  _17
REMARK    9  A    between atoms: _27  and  _28
REMARK   10  A    between atoms: _28  and  _29
REMARK   11  A    between atoms: _28  and  _31
REMARK   12  A    between atoms: _31  and  _32
REMARK   13  A    between atoms: _32  and  _33
REMARK   14  A    between atoms: _32  and  _34
REMARK   15  A    between atoms: _46  and  _47
REMARK   16  A    between atoms: _47  and  _48
REMARK   17  A    between atoms: _47  and  _50
REMARK   18  A    between atoms: _50  and  _51
REMARK   19  A    between atoms: _63  and  _64
REMARK   20  A    between atoms: _64  and  _65
REMARK   21  A    between atoms: _64  and  _67
REMARK   22  A    between atoms: _67  and  _68
REMARK                            x       y       z     vdW  Elec       q    Type
REMARK                         _______ _______ _______ _____ _____    ______ ____
ROOT
ATOM      1  CA  LEU A   3       7.020  -2.552  26.554  0.00  0.00    +0.159 C 
ENDROOT
BRANCH   1   4
ATOM      2  C   VAL A   2       5.795  -4.695  26.226  0.00  0.00    +0.234 C 
ATOM      3  O   VAL A   2       6.239  -5.206  27.254  0.00  0.00    -0.274 OA
ATOM      4  N   LEU A   3       6.194  -3.464  25.766  0.00  0.00    -0.302 N 
ATOM      5  H   LEU A   3       5.675  -3.031  25.006  0.00  0.00    +0.150 HD
BRANCH   2   6
ATOM      6  CA  VAL A   2       4.725  -5.393  25.361  0.00  0.00    +0.161 C 
BRANCH   6   8
ATOM      7  C   ALA A   1       5.076  -5.437  22.897  0.00  0.00    +0.230 C 
ATOM      8  N   VAL A   2       5.441  -5.824  24.163  0.00  0.00    -0.302 N 
ATOM      9  H   VAL A   2       6.308  -6.333  24.312  0.00  0.00    +0.150 HD
ATOM     10  O   ALA A   1       4.081  -4.752  22.665  0.00  0.00    -0.274 OA
BRANCH   7  11
ATOM     11  CA  ALA A   1       6.021  -5.929  21.784  0.00  0.00    +0.135 C 
ATOM     12  CB  ALA A   1       7.456  -5.916  22.293  0.00  0.00    +0.033 C 
BRANCH  11  13
ATOM     13  N   ALA A   1       5.892  -5.058  20.601  0.00  0.00    -0.320 NA
ATOM     14  H1  ALA A   1       5.298  -5.534  19.919  0.00  0.00    +0.119 HD
ATOM     15  H2  ALA A   1       5.334  -4.245  20.883  0.00  0.00    +0.119 HD
ENDBRANCH  11  13
ENDBRANCH   7  11
ENDBRANCH   6   8
BRANCH   6  16
ATOM     16  CB  VAL A   2       4.091  -6.586  26.118  0.00  0.00    +0.012 C 
ATOM     17  CG2 VAL A   2       3.462  -7.603  25.160  0.00  0.00    +0.009 C 
ATOM     18  CG1 VAL A   2       3.022  -6.132  27.120  0.00  0.00    +0.009 C 
ENDBRANCH   6  16
ENDBRANCH   2   6
ENDBRANCH   1   4
BRANCH   1  19
ATOM     19  C   LEU A   3       6.448  -1.146  26.291  0.00  0.00    +0.234 C 
ATOM     20  N   HIS A   4       7.178  -0.356  25.439  0.00  0.00    -0.302 N 
ATOM     21  H   HIS A   4       8.018  -0.700  24.979  0.00  0.00    +0.150 HD
ATOM     22  O   LEU A   3       5.399  -0.763  26.811  0.00  0.00    -0.274 OA
BRANCH  20  23
ATOM     23  CA  HIS A   4       6.724   0.988  25.073  0.00  0.00    +0.165 C 
BRANCH  23  24
ATOM     24  C   HIS A   4       6.618   1.049  23.540  0.00  0.00    +0.234 C 
ATOM     25  O   HIS A   4       6.018   1.962  22.968  0.00  0.00    -0.274 OA
ATOM     26  N   SER A   5       7.252   0.040  22.852  0.00  0.00    -0.302 N 
ATOM     27  H   SER A   5       7.535  -0.804  23.368  0.00  0.00    +0.150 HD
BRANCH  26  28
ATOM     28  CA  SER A   5       7.138  -0.065  21.398  0.00  0.00    +0.161 C 
BRANCH  28  29
ATOM     29  CB  SER A   5       6.602  -1.436  21.008  0.00  0.00    +0.247 C 
ATOM     30  OG  SER A   5       6.197  -2.270  21.816  0.00  0.00    -0.299 OA
ENDBRANCH  28  29
BRANCH  28  31
ATOM     31  C   SER A   5       8.479   0.165  20.687  0.00  0.00    +0.185 C 
BRANCH  31  32
ATOM     32  O   SER A   5       9.048   1.420  21.059  0.00  0.00    -0.393 OA
ATOM     33  H   SER A   5       8.688   1.634  21.940  0.00  0.00    +0.209 HD
ENDBRANCH  31  32
ENDBRANCH  28  31
ENDBRANCH  26  28
ENDBRANCH  23  24
BRANCH  23  34
ATOM     34  CB  HIS A   4       7.675   2.072  25.596  0.00  0.00    +0.088 C 
BRANCH  34  35
ATOM     35  CG  HIS A   4       8.967   2.037  24.864  0.00  0.00    +0.061 A 
ATOM     36  CD2 HIS A   4       9.545   3.008  24.076  0.00  0.00    +0.107 A 
ATOM     37  NE2 HIS A   4      10.698   2.447  23.607  0.00  0.00    -0.351 N 
ATOM     38  HE2 HIS A   4      11.369   2.880  22.986  0.00  0.00    +0.166 HD
ATOM     39  CE1 HIS A   4      10.775   1.181  24.118  0.00  0.00    +0.196 A 
ATOM     40  ND1 HIS A   4       9.737   0.900  24.874  0.00  0.00    -0.241 NA
ENDBRANCH  34  35
ENDBRANCH  23  34
ENDBRANCH  20  23
ENDBRANCH   1  19
BRANCH   1  41
ATOM     41  CB  LEU A   3       8.494  -2.612  26.133  0.00  0.00    +0.034 C 
BRANCH  41  42
ATOM     42  CG  LEU A   3       8.777  -3.488  24.897  0.00  0.00    -0.015 C 
ATOM     43  CD2 LEU A   3       9.566  -2.682  23.862  0.00  0.00    +0.007 C 
ATOM     44  CD1 LEU A   3       9.555  -4.757  25.256  0.00  0.00    +0.007 C 
ENDBRANCH  41  42
ENDBRANCH   1  41
TORSDOF 17
ENDMDL
MODEL 16
REMARK VINA RESULT:      -6.2      2.698      6.971
REMARK  Name = AVLHS-mmff94.pdb
REMARK  22 active torsions:
REMARK  status: ('A' for Active; 'I' for Inactive)
REMARK    1  A    between atoms: _1  and  _2
REMARK    2  A    between atoms: _2  and  _3
REMARK    3  A    between atoms: _2  and  _5
REMARK    4  A    between atoms: _11  and  _12
REMARK    5  A    between atoms: _12  and  _13
REMARK    6  A    between atoms: _12  and  _15
REMARK    7  A    between atoms: _15  and  _16
REMARK    8  A    between atoms: _15  and  _17
REMARK    9  A    between atoms: _27  and  _28
REMARK   10  A    between atoms: _28  and  _29
REMARK   11  A    between atoms: _28  and  _31
REMARK   12  A    between atoms: _31  and  _32
REMARK   13  A    between atoms: _32  and  _33
REMARK   14  A    between atoms: _32  and  _34
REMARK   15  A    between atoms: _46  and  _47
REMARK   16  A    between atoms: _47  and  _48
REMARK   17  A    between atoms: _47  and  _50
REMARK   18  A    between atoms: _50  and  _51
REMARK   19  A    between atoms: _63  and  _64
REMARK   20  A    between atoms: _64  and  _65
REMARK   21  A    between atoms: _64  and  _67
REMARK   22  A    between atoms: _67  and  _68
REMARK                            x       y       z     vdW  Elec       q    Type
REMARK                         _______ _______ _______ _____ _____    ______ ____
ROOT
ATOM      1  CA  LEU A   3       7.404  -1.408  25.459  0.00  0.00    +0.159 C 
ENDROOT
BRANCH   1   4
ATOM      2  C   VAL A   2       5.991  -3.402  25.932  0.00  0.00    +0.234 C 
ATOM      3  O   VAL A   2       6.325  -3.466  27.115  0.00  0.00    -0.274 OA
ATOM      4  N   LEU A   3       6.536  -2.508  25.045  0.00  0.00    -0.302 N 
ATOM      5  H   LEU A   3       6.105  -2.398  24.129  0.00  0.00    +0.150 HD
BRANCH   2   6
ATOM      6  CA  VAL A   2       4.906  -4.323  25.338  0.00  0.00    +0.161 C 
BRANCH   6   8
ATOM      7  C   ALA A   1       5.043  -5.119  22.983  0.00  0.00    +0.230 C 
ATOM      8  N   VAL A   2       5.574  -5.027  24.246  0.00  0.00    -0.302 N 
ATOM      9  H   VAL A   2       6.521  -5.349  24.428  0.00  0.00    +0.150 HD
ATOM     10  O   ALA A   1       3.935  -4.676  22.687  0.00  0.00    -0.274 OA
BRANCH   7  11
ATOM     11  CA  ALA A   1       5.954  -5.824  21.960  0.00  0.00    +0.135 C 
ATOM     12  CB  ALA A   1       7.390  -5.815  22.467  0.00  0.00    +0.033 C 
BRANCH  11  13
ATOM     13  N   ALA A   1       5.868  -5.134  20.659  0.00  0.00    -0.320 NA
ATOM     14  H1  ALA A   1       4.981  -5.391  20.221  0.00  0.00    +0.119 HD
ATOM     15  H2  ALA A   1       5.762  -4.133  20.854  0.00  0.00    +0.119 HD
ENDBRANCH  11  13
ENDBRANCH   7  11
ENDBRANCH   6   8
BRANCH   6  16
ATOM     16  CB  VAL A   2       4.360  -5.300  26.409  0.00  0.00    +0.012 C 
ATOM     17  CG2 VAL A   2       5.035  -6.674  26.329  0.00  0.00    +0.009 C 
ATOM     18  CG1 VAL A   2       2.842  -5.493  26.293  0.00  0.00    +0.009 C 
ENDBRANCH   6  16
ENDBRANCH   2   6
ENDBRANCH   1   4
BRANCH   1  19
ATOM     19  C   LEU A   3       7.116  -0.260  24.474  0.00  0.00    +0.234 C 
ATOM     20  N   HIS A   4       8.218   0.360  23.941  0.00  0.00    -0.302 N 
ATOM     21  H   HIS A   4       9.162   0.045  24.153  0.00  0.00    +0.150 HD
ATOM     22  O   LEU A   3       5.965   0.073  24.182  0.00  0.00    -0.274 OA
BRANCH  20  23
ATOM     23  CA  HIS A   4       8.082   1.439  22.959  0.00  0.00    +0.165 C 
BRANCH  23  24
ATOM     24  C   HIS A   4       8.068   0.805  21.558  0.00  0.00    +0.234 C 
ATOM     25  O   HIS A   4       9.108   0.481  20.983  0.00  0.00    -0.274 OA
ATOM     26  N   SER A   5       6.825   0.603  21.003  0.00  0.00    -0.302 N 
ATOM     27  H   SER A   5       6.018   1.092  21.413  0.00  0.00    +0.150 HD
BRANCH  26  28
ATOM     28  CA  SER A   5       6.685   0.101  19.636  0.00  0.00    +0.161 C 
BRANCH  28  29
ATOM     29  CB  SER A   5       6.030   1.153  18.751  0.00  0.00    +0.247 C 
ATOM     30  OG  SER A   5       6.058   1.130  17.522  0.00  0.00    -0.299 OA
ENDBRANCH  28  29
BRANCH  28  31
ATOM     31  C   SER A   5       5.859  -1.191  19.569  0.00  0.00    +0.185 C 
BRANCH  31  32
ATOM     32  O   SER A   5       5.614  -1.574  18.216  0.00  0.00    -0.393 OA
ATOM     33  H   SER A   5       4.833  -2.159  18.233  0.00  0.00    +0.209 HD
ENDBRANCH  31  32
ENDBRANCH  28  31
ENDBRANCH  26  28
ENDBRANCH  23  24
BRANCH  23  34
ATOM     34  CB  HIS A   4       9.217   2.464  23.080  0.00  0.00    +0.088 C 
BRANCH  34  35
ATOM     35  CG  HIS A   4       8.869   3.521  24.064  0.00  0.00    +0.061 A 
ATOM     36  CD2 HIS A   4       9.327   4.818  24.144  0.00  0.00    +0.107 A 
ATOM     37  NE2 HIS A   4       8.732   5.339  25.257  0.00  0.00    -0.351 N 
ATOM     38  HE2 HIS A   4       8.854   6.274  25.622  0.00  0.00    +0.166 HD
ATOM     39  CE1 HIS A   4       7.951   4.358  25.801  0.00  0.00    +0.196 A 
ATOM     40  ND1 HIS A   4       8.022   3.243  25.109  0.00  0.00    -0.241 NA
ENDBRANCH  34  35
ENDBRANCH  23  34
ENDBRANCH  20  23
ENDBRANCH   1  19
BRANCH   1  41
ATOM     41  CB  LEU A   3       8.887  -1.800  25.395  0.00  0.00    +0.034 C 
BRANCH  41  42
ATOM     42  CG  LEU A   3       9.229  -2.860  24.331  0.00  0.00    -0.015 C 
ATOM     43  CD2 LEU A   3      10.326  -2.326  23.405  0.00  0.00    +0.007 C 
ATOM     44  CD1 LEU A   3       9.690  -4.178  24.958  0.00  0.00    +0.007 C 
ENDBRANCH  41  42
ENDBRANCH   1  41
TORSDOF 17
ENDMDL
MODEL 17
REMARK VINA RESULT:      -6.2      2.286      5.512
REMARK  Name = AVLHS-mmff94.pdb
REMARK  22 active torsions:
REMARK  status: ('A' for Active; 'I' for Inactive)
REMARK    1  A    between atoms: _1  and  _2
REMARK    2  A    between atoms: _2  and  _3
REMARK    3  A    between atoms: _2  and  _5
REMARK    4  A    between atoms: _11  and  _12
REMARK    5  A    between atoms: _12  and  _13
REMARK    6  A    between atoms: _12  and  _15
REMARK    7  A    between atoms: _15  and  _16
REMARK    8  A    between atoms: _15  and  _17
REMARK    9  A    between atoms: _27  and  _28
REMARK   10  A    between atoms: _28  and  _29
REMARK   11  A    between atoms: _28  and  _31
REMARK   12  A    between atoms: _31  and  _32
REMARK   13  A    between atoms: _32  and  _33
REMARK   14  A    between atoms: _32  and  _34
REMARK   15  A    between atoms: _46  and  _47
REMARK   16  A    between atoms: _47  and  _48
REMARK   17  A    between atoms: _47  and  _50
REMARK   18  A    between atoms: _50  and  _51
REMARK   19  A    between atoms: _63  and  _64
REMARK   20  A    between atoms: _64  and  _65
REMARK   21  A    between atoms: _64  and  _67
REMARK   22  A    between atoms: _67  and  _68
REMARK                            x       y       z     vdW  Elec       q    Type
REMARK                         _______ _______ _______ _____ _____    ______ ____
ROOT
ATOM      1  CA  LEU A   3       7.368   0.513  21.122  0.00  0.00    +0.159 C 
ENDROOT
BRANCH   1   4
ATOM      2  C   VAL A   2       6.795   2.261  22.800  0.00  0.00    +0.234 C 
ATOM      3  O   VAL A   2       6.054   1.520  23.447  0.00  0.00    -0.274 OA
ATOM      4  N   LEU A   3       7.386   1.888  21.619  0.00  0.00    -0.302 N 
ATOM      5  H   LEU A   3       8.109   2.483  21.221  0.00  0.00    +0.150 HD
BRANCH   2   6
ATOM      6  CA  VAL A   2       7.141   3.687  23.275  0.00  0.00    +0.161 C 
BRANCH   6   8
ATOM      7  C   ALA A   1       9.400   4.345  24.089  0.00  0.00    +0.230 C 
ATOM      8  N   VAL A   2       8.592   3.783  23.131  0.00  0.00    -0.302 N 
ATOM      9  H   VAL A   2       9.000   3.303  22.334  0.00  0.00    +0.150 HD
ATOM     10  O   ALA A   1       8.964   4.869  25.112  0.00  0.00    -0.274 OA
BRANCH   7  11
ATOM     11  CA  ALA A   1      10.907   4.259  23.778  0.00  0.00    +0.135 C 
ATOM     12  CB  ALA A   1      11.437   5.647  23.447  0.00  0.00    +0.033 C 
BRANCH  11  13
ATOM     13  N   ALA A   1      11.130   3.344  22.644  0.00  0.00    -0.320 NA
ATOM     14  H1  ALA A   1      11.430   3.900  21.840  0.00  0.00    +0.119 HD
ATOM     15  H2  ALA A   1      11.955   2.778  22.869  0.00  0.00    +0.119 HD
ENDBRANCH  11  13
ENDBRANCH   7  11
ENDBRANCH   6   8
BRANCH   6  16
ATOM     16  CB  VAL A   2       6.403   4.750  22.424  0.00  0.00    +0.012 C 
ATOM     17  CG2 VAL A   2       7.347   5.858  21.946  0.00  0.00    +0.009 C 
ATOM     18  CG1 VAL A   2       5.240   5.395  23.189  0.00  0.00    +0.009 C 
ENDBRANCH   6  16
ENDBRANCH   2   6
ENDBRANCH   1   4
BRANCH   1  19
ATOM     19  C   LEU A   3       8.509  -0.209  21.863  0.00  0.00    +0.234 C 
ATOM     20  N   HIS A   4       8.121  -1.078  22.852  0.00  0.00    -0.302 N 
ATOM     21  H   HIS A   4       7.140  -1.262  23.046  0.00  0.00    +0.150 HD
ATOM     22  O   LEU A   3       9.692  -0.019  21.577  0.00  0.00    -0.274 OA
BRANCH  20  23
ATOM     23  CA  HIS A   4       9.105  -1.860  23.605  0.00  0.00    +0.165 C 
BRANCH  23  24
ATOM     24  C   HIS A   4       8.614  -3.316  23.655  0.00  0.00    +0.234 C 
ATOM     25  O   HIS A   4       9.275  -4.204  24.197  0.00  0.00    -0.274 OA
ATOM     26  N   SER A   5       7.386  -3.556  23.082  0.00  0.00    -0.302 N 
ATOM     27  H   SER A   5       6.989  -2.845  22.452  0.00  0.00    +0.150 HD
BRANCH  26  28
ATOM     28  CA  SER A   5       6.859  -4.917  22.978  0.00  0.00    +0.161 C 
BRANCH  28  29
ATOM     29  CB  SER A   5       6.948  -5.411  21.540  0.00  0.00    +0.247 C 
ATOM     30  OG  SER A   5       5.985  -5.487  20.780  0.00  0.00    -0.299 OA
ENDBRANCH  28  29
BRANCH  28  31
ATOM     31  C   SER A   5       5.401  -5.016  23.449  0.00  0.00    +0.185 C 
BRANCH  31  32
ATOM     32  O   SER A   5       4.544  -4.215  22.637  0.00  0.00    -0.393 OA
ATOM     33  H   SER A   5       4.294  -3.443  23.180  0.00  0.00    +0.209 HD
ENDBRANCH  31  32
ENDBRANCH  28  31
ENDBRANCH  26  28
ENDBRANCH  23  24
BRANCH  23  34
ATOM     34  CB  HIS A   4       9.309  -1.305  25.021  0.00  0.00    +0.088 C 
BRANCH  34  35
ATOM     35  CG  HIS A   4       8.050  -0.714  25.542  0.00  0.00    +0.061 A 
ATOM     36  CD2 HIS A   4       7.831   0.544  26.059  0.00  0.00    +0.107 A 
ATOM     37  NE2 HIS A   4       6.518   0.552  26.434  0.00  0.00    -0.351 N 
ATOM     38  HE2 HIS A   4       6.020   1.320  26.864  0.00  0.00    +0.166 HD
ATOM     39  CE1 HIS A   4       5.999  -0.677  26.135  0.00  0.00    +0.196 A 
ATOM     40  ND1 HIS A   4       6.905  -1.469  25.605  0.00  0.00    -0.241 NA
ENDBRANCH  34  35
ENDBRANCH  23  34
ENDBRANCH  20  23
ENDBRANCH   1  19
BRANCH   1  41
ATOM     41  CB  LEU A   3       7.600   0.454  19.607  0.00  0.00    +0.034 C 
BRANCH  41  42
ATOM     42  CG  LEU A   3       6.380  -0.005  18.784  0.00  0.00    -0.015 C 
ATOM     43  CD2 LEU A   3       5.799  -1.285  19.392  0.00  0.00    +0.007 C 
ATOM     44  CD1 LEU A   3       5.291   1.069  18.721  0.00  0.00    +0.007 C 
ENDBRANCH  41  42
ENDBRANCH   1  41
TORSDOF 17
ENDMDL
MODEL 18
REMARK VINA RESULT:      -6.2      2.394      5.898
REMARK  Name = AVLHS-mmff94.pdb
REMARK  22 active torsions:
REMARK  status: ('A' for Active; 'I' for Inactive)
REMARK    1  A    between atoms: _1  and  _2
REMARK    2  A    between atoms: _2  and  _3
REMARK    3  A    between atoms: _2  and  _5
REMARK    4  A    between atoms: _11  and  _12
REMARK    5  A    between atoms: _12  and  _13
REMARK    6  A    between atoms: _12  and  _15
REMARK    7  A    between atoms: _15  and  _16
REMARK    8  A    between atoms: _15  and  _17
REMARK    9  A    between atoms: _27  and  _28
REMARK   10  A    between atoms: _28  and  _29
REMARK   11  A    between atoms: _28  and  _31
REMARK   12  A    between atoms: _31  and  _32
REMARK   13  A    between atoms: _32  and  _33
REMARK   14  A    between atoms: _32  and  _34
REMARK   15  A    between atoms: _46  and  _47
REMARK   16  A    between atoms: _47  and  _48
REMARK   17  A    between atoms: _47  and  _50
REMARK   18  A    between atoms: _50  and  _51
REMARK   19  A    between atoms: _63  and  _64
REMARK   20  A    between atoms: _64  and  _65
REMARK   21  A    between atoms: _64  and  _67
REMARK   22  A    between atoms: _67  and  _68
REMARK                            x       y       z     vdW  Elec       q    Type
REMARK                         _______ _______ _______ _____ _____    ______ ____
ROOT
ATOM      1  CA  LEU A   3       7.251   0.094  21.230  0.00  0.00    +0.159 C 
ENDROOT
BRANCH   1   4
ATOM      2  C   VAL A   2       6.216   2.228  21.988  0.00  0.00    +0.234 C 
ATOM      3  O   VAL A   2       5.471   2.313  21.012  0.00  0.00    -0.274 OA
ATOM      4  N   LEU A   3       7.169   1.249  22.122  0.00  0.00    -0.302 N 
ATOM      5  H   LEU A   3       7.638   1.138  23.018  0.00  0.00    +0.150 HD
BRANCH   2   6
ATOM      6  CA  VAL A   2       6.133   3.216  23.169  0.00  0.00    +0.161 C 
BRANCH   6   8
ATOM      7  C   ALA A   1       5.155   1.823  24.985  0.00  0.00    +0.230 C 
ATOM      8  N   VAL A   2       6.244   2.379  24.361  0.00  0.00    -0.302 N 
ATOM      9  H   VAL A   2       7.185   2.122  24.647  0.00  0.00    +0.150 HD
ATOM     10  O   ALA A   1       3.997   2.036  24.633  0.00  0.00    -0.274 OA
BRANCH   7  11
ATOM     11  CA  ALA A   1       5.505   0.900  26.169  0.00  0.00    +0.135 C 
ATOM     12  CB  ALA A   1       6.337   1.669  27.186  0.00  0.00    +0.033 C 
BRANCH  11  13
ATOM     13  N   ALA A   1       6.252  -0.274  25.681  0.00  0.00    -0.320 NA
ATOM     14  H1  ALA A   1       5.613  -1.071  25.654  0.00  0.00    +0.119 HD
ATOM     15  H2  ALA A   1       6.470  -0.105  24.693  0.00  0.00    +0.119 HD
ENDBRANCH  11  13
ENDBRANCH   7  11
ENDBRANCH   6   8
BRANCH   6  16
ATOM     16  CB  VAL A   2       7.265   4.270  23.092  0.00  0.00    +0.012 C 
ATOM     17  CG2 VAL A   2       7.509   4.949  24.445  0.00  0.00    +0.009 C 
ATOM     18  CG1 VAL A   2       6.976   5.353  22.046  0.00  0.00    +0.009 C 
ENDBRANCH   6  16
ENDBRANCH   2   6
ENDBRANCH   1   4
BRANCH   1  19
ATOM     19  C   LEU A   3       8.333  -0.820  21.836  0.00  0.00    +0.234 C 
ATOM     20  N   HIS A   4       8.050  -1.336  23.076  0.00  0.00    -0.302 N 
ATOM     21  H   HIS A   4       7.161  -1.158  23.538  0.00  0.00    +0.150 HD
ATOM     22  O   LEU A   3       9.380  -1.073  21.239  0.00  0.00    -0.274 OA
BRANCH  20  23
ATOM     23  CA  HIS A   4       8.975  -2.253  23.746  0.00  0.00    +0.165 C 
BRANCH  23  24
ATOM     24  C   HIS A   4       8.179  -3.493  24.183  0.00  0.00    +0.234 C 
ATOM     25  O   HIS A   4       8.377  -4.601  23.680  0.00  0.00    -0.274 OA
ATOM     26  N   SER A   5       7.255  -3.292  25.183  0.00  0.00    -0.302 N 
ATOM     27  H   SER A   5       6.970  -2.328  25.403  0.00  0.00    +0.150 HD
BRANCH  26  28
ATOM     28  CA  SER A   5       6.367  -4.372  25.614  0.00  0.00    +0.161 C 
BRANCH  28  29
ATOM     29  CB  SER A   5       4.964  -3.835  25.861  0.00  0.00    +0.247 C 
ATOM     30  OG  SER A   5       4.574  -2.732  25.484  0.00  0.00    -0.299 OA
ENDBRANCH  28  29
BRANCH  28  31
ATOM     31  C   SER A   5       6.866  -5.066  26.889  0.00  0.00    +0.185 C 
BRANCH  31  32
ATOM     32  O   SER A   5       8.030  -5.849  26.625  0.00  0.00    -0.393 OA
ATOM     33  H   SER A   5       8.793  -5.311  26.906  0.00  0.00    +0.209 HD
ENDBRANCH  31  32
ENDBRANCH  28  31
ENDBRANCH  26  28
ENDBRANCH  23  24
BRANCH  23  34
ATOM     34  CB  HIS A   4       9.658  -1.593  24.951  0.00  0.00    +0.088 C 
BRANCH  34  35
ATOM     35  CG  HIS A   4       9.965  -0.167  24.666  0.00  0.00    +0.061 A 
ATOM     36  CD2 HIS A   4      11.147   0.398  24.239  0.00  0.00    +0.107 A 
ATOM     37  NE2 HIS A   4      10.900   1.740  24.185  0.00  0.00    -0.351 N 
ATOM     38  HE2 HIS A   4      11.557   2.462  23.918  0.00  0.00    +0.166 HD
ATOM     39  CE1 HIS A   4       9.604   1.935  24.573  0.00  0.00    +0.196 A 
ATOM     40  ND1 HIS A   4       9.015   0.802  24.882  0.00  0.00    -0.241 NA
ENDBRANCH  34  35
ENDBRANCH  23  34
ENDBRANCH  20  23
ENDBRANCH   1  19
BRANCH   1  41
ATOM     41  CB  LEU A   3       7.644   0.505  19.804  0.00  0.00    +0.034 C 
BRANCH  41  42
ATOM     42  CG  LEU A   3       6.759  -0.093  18.694  0.00  0.00    -0.015 C 
ATOM     43  CD2 LEU A   3       5.736  -1.052  19.309  0.00  0.00    +0.007 C 
ATOM     44  CD1 LEU A   3       6.028   0.987  17.894  0.00  0.00    +0.007 C 
ENDBRANCH  41  42
ENDBRANCH   1  41
TORSDOF 17
ENDMDL
MODEL 19
REMARK VINA RESULT:      -6.2      2.225      5.464
REMARK  Name = AVLHS-mmff94.pdb
REMARK  22 active torsions:
REMARK  status: ('A' for Active; 'I' for Inactive)
REMARK    1  A    between atoms: _1  and  _2
REMARK    2  A    between atoms: _2  and  _3
REMARK    3  A    between atoms: _2  and  _5
REMARK    4  A    between atoms: _11  and  _12
REMARK    5  A    between atoms: _12  and  _13
REMARK    6  A    between atoms: _12  and  _15
REMARK    7  A    between atoms: _15  and  _16
REMARK    8  A    between atoms: _15  and  _17
REMARK    9  A    between atoms: _27  and  _28
REMARK   10  A    between atoms: _28  and  _29
REMARK   11  A    between atoms: _28  and  _31
REMARK   12  A    between atoms: _31  and  _32
REMARK   13  A    between atoms: _32  and  _33
REMARK   14  A    between atoms: _32  and  _34
REMARK   15  A    between atoms: _46  and  _47
REMARK   16  A    between atoms: _47  and  _48
REMARK   17  A    between atoms: _47  and  _50
REMARK   18  A    between atoms: _50  and  _51
REMARK   19  A    between atoms: _63  and  _64
REMARK   20  A    between atoms: _64  and  _65
REMARK   21  A    between atoms: _64  and  _67
REMARK   22  A    between atoms: _67  and  _68
REMARK                            x       y       z     vdW  Elec       q    Type
REMARK                         _______ _______ _______ _____ _____    ______ ____
ROOT
ATOM      1  CA  LEU A   3       7.056  -0.315  20.956  0.00  0.00    +0.159 C 
ENDROOT
BRANCH   1   4
ATOM      2  C   VAL A   2       7.323   1.806  22.232  0.00  0.00    +0.234 C 
ATOM      3  O   VAL A   2       8.482   1.985  21.861  0.00  0.00    -0.274 OA
ATOM      4  N   LEU A   3       6.601   0.680  21.925  0.00  0.00    -0.302 N 
ATOM      5  H   LEU A   3       5.603   0.665  22.124  0.00  0.00    +0.150 HD
BRANCH   2   6
ATOM      6  CA  VAL A   2       6.563   2.851  23.074  0.00  0.00    +0.161 C 
BRANCH   6   8
ATOM      7  C   ALA A   1       4.935   1.977  24.742  0.00  0.00    +0.230 C 
ATOM      8  N   VAL A   2       6.227   2.155  24.314  0.00  0.00    -0.302 N 
ATOM      9  H   VAL A   2       6.994   1.695  24.797  0.00  0.00    +0.150 HD
ATOM     10  O   ALA A   1       3.962   2.444  24.153  0.00  0.00    -0.274 OA
BRANCH   7  11
ATOM     11  CA  ALA A   1       4.801   1.136  26.026  0.00  0.00    +0.135 C 
ATOM     12  CB  ALA A   1       5.376  -0.253  25.786  0.00  0.00    +0.033 C 
BRANCH  11  13
ATOM     13  N   ALA A   1       3.380   1.040  26.412  0.00  0.00    -0.320 NA
ATOM     14  H1  ALA A   1       3.176   0.063  26.632  0.00  0.00    +0.119 HD
ATOM     15  H2  ALA A   1       3.279   1.518  27.313  0.00  0.00    +0.119 HD
ENDBRANCH  11  13
ENDBRANCH   7  11
ENDBRANCH   6   8
BRANCH   6  16
ATOM     16  CB  VAL A   2       7.440   4.102  23.331  0.00  0.00    +0.012 C 
ATOM     17  CG2 VAL A   2       7.463   4.492  24.813  0.00  0.00    +0.009 C 
ATOM     18  CG1 VAL A   2       6.973   5.312  22.513  0.00  0.00    +0.009 C 
ENDBRANCH   6  16
ENDBRANCH   2   6
ENDBRANCH   1   4
BRANCH   1  19
ATOM     19  C   LEU A   3       8.183  -1.094  21.662  0.00  0.00    +0.234 C 
ATOM     20  N   HIS A   4       7.817  -1.776  22.795  0.00  0.00    -0.302 N 
ATOM     21  H   HIS A   4       6.851  -1.798  23.116  0.00  0.00    +0.150 HD
ATOM     22  O   LEU A   3       9.336  -1.105  21.228  0.00  0.00    -0.274 OA
BRANCH  20  23
ATOM     23  CA  HIS A   4       8.782  -2.590  23.537  0.00  0.00    +0.165 C 
BRANCH  23  24
ATOM     24  C   HIS A   4       8.229  -4.022  23.621  0.00  0.00    +0.234 C 
ATOM     25  O   HIS A   4       8.839  -4.919  24.205  0.00  0.00    -0.274 OA
ATOM     26  N   SER A   5       7.004  -4.229  23.027  0.00  0.00    -0.302 N 
ATOM     27  H   SER A   5       6.652  -3.522  22.367  0.00  0.00    +0.150 HD
BRANCH  26  28
ATOM     28  CA  SER A   5       6.422  -5.569  22.954  0.00  0.00    +0.161 C 
BRANCH  28  29
ATOM     29  CB  SER A   5       6.388  -6.052  21.511  0.00  0.00    +0.247 C 
ATOM     30  OG  SER A   5       5.976  -5.376  20.570  0.00  0.00    -0.299 OA
ENDBRANCH  28  29
BRANCH  28  31
ATOM     31  C   SER A   5       4.999  -5.620  23.529  0.00  0.00    +0.185 C 
BRANCH  31  32
ATOM     32  O   SER A   5       4.101  -4.831  22.749  0.00  0.00    -0.393 OA
ATOM     33  H   SER A   5       4.043  -3.963  23.191  0.00  0.00    +0.209 HD
ENDBRANCH  31  32
ENDBRANCH  28  31
ENDBRANCH  26  28
ENDBRANCH  23  24
BRANCH  23  34
ATOM     34  CB  HIS A   4       9.044  -2.025  24.939  0.00  0.00    +0.088 C 
BRANCH  34  35
ATOM     35  CG  HIS A   4       9.498  -0.612  24.861  0.00  0.00    +0.061 A 
ATOM     36  CD2 HIS A   4       8.900   0.521  25.366  0.00  0.00    +0.107 A 
ATOM     37  NE2 HIS A   4       9.702   1.553  24.972  0.00  0.00    -0.351 N 
ATOM     38  HE2 HIS A   4       9.555   2.536  25.162  0.00  0.00    +0.166 HD
ATOM     39  CE1 HIS A   4      10.737   1.019  24.256  0.00  0.00    +0.196 A 
ATOM     40  ND1 HIS A   4      10.636  -0.289  24.162  0.00  0.00    -0.241 NA
ENDBRANCH  34  35
ENDBRANCH  23  34
ENDBRANCH  20  23
ENDBRANCH   1  19
BRANCH   1  41
ATOM     41  CB  LEU A   3       7.588   0.341  19.675  0.00  0.00    +0.034 C 
BRANCH  41  42
ATOM     42  CG  LEU A   3       6.609   0.324  18.486  0.00  0.00    -0.015 C 
ATOM     43  CD2 LEU A   3       5.981  -1.066  18.354  0.00  0.00    +0.007 C 
ATOM     44  CD1 LEU A   3       5.502   1.370  18.636  0.00  0.00    +0.007 C 
ENDBRANCH  41  42
ENDBRANCH   1  41
TORSDOF 17
ENDMDL
MODEL 20
REMARK VINA RESULT:      -6.2      2.745      6.093
REMARK  Name = AVLHS-mmff94.pdb
REMARK  22 active torsions:
REMARK  status: ('A' for Active; 'I' for Inactive)
REMARK    1  A    between atoms: _1  and  _2
REMARK    2  A    between atoms: _2  and  _3
REMARK    3  A    between atoms: _2  and  _5
REMARK    4  A    between atoms: _11  and  _12
REMARK    5  A    between atoms: _12  and  _13
REMARK    6  A    between atoms: _12  and  _15
REMARK    7  A    between atoms: _15  and  _16
REMARK    8  A    between atoms: _15  and  _17
REMARK    9  A    between atoms: _27  and  _28
REMARK   10  A    between atoms: _28  and  _29
REMARK   11  A    between atoms: _28  and  _31
REMARK   12  A    between atoms: _31  and  _32
REMARK   13  A    between atoms: _32  and  _33
REMARK   14  A    between atoms: _32  and  _34
REMARK   15  A    between atoms: _46  and  _47
REMARK   16  A    between atoms: _47  and  _48
REMARK   17  A    between atoms: _47  and  _50
REMARK   18  A    between atoms: _50  and  _51
REMARK   19  A    between atoms: _63  and  _64
REMARK   20  A    between atoms: _64  and  _65
REMARK   21  A    between atoms: _64  and  _67
REMARK   22  A    between atoms: _67  and  _68
REMARK                            x       y       z     vdW  Elec       q    Type
REMARK                         _______ _______ _______ _____ _____    ______ ____
ROOT
ATOM      1  CA  LEU A   3       5.792  -3.462  22.646  0.00  0.00    +0.159 C 
ENDROOT
BRANCH   1   4
ATOM      2  C   VAL A   2       5.988  -1.771  20.830  0.00  0.00    +0.234 C 
ATOM      3  O   VAL A   2       5.587  -2.537  19.955  0.00  0.00    -0.274 OA
ATOM      4  N   LEU A   3       6.210  -2.162  22.127  0.00  0.00    -0.302 N 
ATOM      5  H   LEU A   3       6.385  -1.450  22.833  0.00  0.00    +0.150 HD
BRANCH   2   6
ATOM      6  CA  VAL A   2       6.267  -0.280  20.548  0.00  0.00    +0.161 C 
BRANCH   6   8
ATOM      7  C   ALA A   1       8.217   1.014  21.394  0.00  0.00    +0.230 C 
ATOM      8  N   VAL A   2       7.694  -0.113  20.811  0.00  0.00    -0.302 N 
ATOM      9  H   VAL A   2       8.281  -0.928  20.653  0.00  0.00    +0.150 HD
ATOM     10  O   ALA A   1       7.539   1.999  21.680  0.00  0.00    -0.274 OA
BRANCH   7  11
ATOM     11  CA  ALA A   1       9.733   0.944  21.666  0.00  0.00    +0.135 C 
ATOM     12  CB  ALA A   1       9.997   0.003  22.833  0.00  0.00    +0.033 C 
BRANCH  11  13
ATOM     13  N   ALA A   1      10.246   2.293  21.972  0.00  0.00    -0.320 NA
ATOM     14  H1  ALA A   1      10.394   2.785  21.089  0.00  0.00    +0.119 HD
ATOM     15  H2  ALA A   1       9.482   2.814  22.415  0.00  0.00    +0.119 HD
ENDBRANCH  11  13
ENDBRANCH   7  11
ENDBRANCH   6   8
BRANCH   6  16
ATOM     16  CB  VAL A   2       5.900   0.087  19.088  0.00  0.00    +0.012 C 
ATOM     17  CG2 VAL A   2       7.145   0.325  18.227  0.00  0.00    +0.009 C 
ATOM     18  CG1 VAL A   2       5.007   1.332  19.013  0.00  0.00    +0.009 C 
ENDBRANCH   6  16
ENDBRANCH   2   6
ENDBRANCH   1   4
BRANCH   1  19
ATOM     19  C   LEU A   3       5.108  -3.169  23.994  0.00  0.00    +0.234 C 
ATOM     20  N   HIS A   4       5.909  -2.619  24.963  0.00  0.00    -0.302 N 
ATOM     21  H   HIS A   4       6.881  -2.381  24.779  0.00  0.00    +0.150 HD
ATOM     22  O   LEU A   3       3.914  -3.410  24.183  0.00  0.00    -0.274 OA
BRANCH  20  23
ATOM     23  CA  HIS A   4       5.372  -2.253  26.275  0.00  0.00    +0.165 C 
BRANCH  23  24
ATOM     24  C   HIS A   4       5.776  -0.798  26.563  0.00  0.00    +0.234 C 
ATOM     25  O   HIS A   4       5.747  -0.331  27.704  0.00  0.00    -0.274 OA
ATOM     26  N   SER A   5       6.192  -0.063  25.476  0.00  0.00    -0.302 N 
ATOM     27  H   SER A   5       5.981  -0.418  24.533  0.00  0.00    +0.150 HD
BRANCH  26  28
ATOM     28  CA  SER A   5       6.504   1.360  25.606  0.00  0.00    +0.161 C 
BRANCH  28  29
ATOM     29  CB  SER A   5       5.648   2.179  24.650  0.00  0.00    +0.247 C 
ATOM     30  OG  SER A   5       4.440   2.012  24.496  0.00  0.00    -0.299 OA
ENDBRANCH  28  29
BRANCH  28  31
ATOM     31  C   SER A   5       7.985   1.661  25.331  0.00  0.00    +0.185 C 
BRANCH  31  32
ATOM     32  O   SER A   5       8.127   2.782  24.460  0.00  0.00    -0.393 OA
ATOM     33  H   SER A   5       7.577   2.592  23.676  0.00  0.00    +0.209 HD
ENDBRANCH  31  32
ENDBRANCH  28  31
ENDBRANCH  26  28
ENDBRANCH  23  24
BRANCH  23  34
ATOM     34  CB  HIS A   4       5.883  -3.188  27.380  0.00  0.00    +0.088 C 
BRANCH  34  35
ATOM     35  CG  HIS A   4       6.990  -4.041  26.877  0.00  0.00    +0.061 A 
ATOM     36  CD2 HIS A   4       7.030  -5.410  26.723  0.00  0.00    +0.107 A 
ATOM     37  NE2 HIS A   4       8.292  -5.681  26.277  0.00  0.00    -0.351 N 
ATOM     38  HE2 HIS A   4       8.672  -6.595  26.067  0.00  0.00    +0.166 HD
ATOM     39  CE1 HIS A   4       8.957  -4.491  26.179  0.00  0.00    +0.196 A 
ATOM     40  ND1 HIS A   4       8.200  -3.482  26.546  0.00  0.00    -0.241 NA
ENDBRANCH  34  35
ENDBRANCH  23  34
ENDBRANCH  20  23
ENDBRANCH   1  19
BRANCH   1  41
ATOM     41  CB  LEU A   3       6.988  -4.402  22.853  0.00  0.00    +0.034 C 
BRANCH  41  42
ATOM     42  CG  LEU A   3       6.770  -5.843  22.352  0.00  0.00    -0.015 C 
ATOM     43  CD2 LEU A   3       5.750  -6.552  23.248  0.00  0.00    +0.007 C 
ATOM     44  CD1 LEU A   3       6.288  -5.883  20.900  0.00  0.00    +0.007 C 
ENDBRANCH  41  42
ENDBRANCH   1  41
TORSDOF 17
ENDMDL
