REMARK  Name = AVLHS-mmff94.pdb
REMARK  22 active torsions:
REMARK  status: ('A' for Active; 'I' for Inactive)
REMARK    1  A    between atoms: _1  and  _2
REMARK    2  A    between atoms: _2  and  _3
REMARK    3  A    between atoms: _2  and  _5
REMARK    4  A    between atoms: _11  and  _12
REMARK    5  A    between atoms: _12  and  _13
REMARK    6  A    between atoms: _12  and  _15
REMARK    7  A    between atoms: _15  and  _16
REMARK    8  A    between atoms: _15  and  _17
REMARK    9  A    between atoms: _27  and  _28
REMARK   10  A    between atoms: _28  and  _29
REMARK   11  A    between atoms: _28  and  _31
REMARK   12  A    between atoms: _31  and  _32
REMARK   13  A    between atoms: _32  and  _33
REMARK   14  A    between atoms: _32  and  _34
REMARK   15  A    between atoms: _46  and  _47
REMARK   16  A    between atoms: _47  and  _48
REMARK   17  A    between atoms: _47  and  _50
REMARK   18  A    between atoms: _50  and  _51
REMARK   19  A    between atoms: _63  and  _64
REMARK   20  A    between atoms: _64  and  _65
REMARK   21  A    between atoms: _64  and  _67
REMARK   22  A    between atoms: _67  and  _68
REMARK                            x       y       z     vdW  Elec       q    Type
REMARK                         _______ _______ _______ _____ _____    ______ ____
ROOT
ATOM      1  CA  LEU A   3       5.969   3.546  -0.227  0.00  0.00    +0.159 C 
ENDROOT
BRANCH   1   4
ATOM      2  C   VAL A   2       4.160   1.989  -0.935  0.00  0.00    +0.234 C 
ATOM      3  O   VAL A   2       3.598   2.825  -1.642  0.00  0.00    -0.274 OA
ATOM      4  N   LEU A   3       5.245   2.279  -0.146  0.00  0.00    -0.302 N 
ATOM      5  H   LEU A   3       5.758   1.514   0.286  0.00  0.00    +0.150 HD
BRANCH   2   6
ATOM      6  CA  VAL A   2       3.698   0.518  -0.884  0.00  0.00    +0.161 C 
BRANCH   6   8
ATOM      7  C   ALA A   1       1.422  -0.235  -0.214  0.00  0.00    +0.230 C 
ATOM      8  N   VAL A   2       2.240   0.585  -0.951  0.00  0.00    -0.302 N 
ATOM      9  H   VAL A   2       1.847   1.356  -1.484  0.00  0.00    +0.150 HD
ATOM     10  O   ALA A   1       1.847  -1.133   0.510  0.00  0.00    -0.274 OA
BRANCH   7  11
ATOM     11  CA  ALA A   1      -0.082   0.066  -0.365  0.00  0.00    +0.135 C 
ATOM     12  CB  ALA A   1      -0.510   1.066   0.700  0.00  0.00    +0.033 C 
BRANCH  11  13
ATOM     13  N   ALA A   1      -0.855  -1.183  -0.232  0.00  0.00    -0.320 NA
ATOM     14  H1  ALA A   1      -0.521  -1.841  -0.939  0.00  0.00    +0.119 HD
ATOM     15  H2  ALA A   1      -0.577  -1.618   0.654  0.00  0.00    +0.119 HD
ENDBRANCH  11  13
ENDBRANCH   7  11
ENDBRANCH   6   8
BRANCH   6  16
ATOM     16  CB  VAL A   2       4.296  -0.293  -2.060  0.00  0.00    +0.012 C 
ATOM     17  CG2 VAL A   2       3.779  -1.736  -2.082  0.00  0.00    +0.009 C 
ATOM     18  CG1 VAL A   2       5.829  -0.323  -2.020  0.00  0.00    +0.009 C 
ENDBRANCH   6  16
ENDBRANCH   2   6
ENDBRANCH   1   4
BRANCH   1  19
ATOM     19  C   LEU A   3       7.461   3.167  -0.276  0.00  0.00    +0.234 C 
ATOM     20  N   HIS A   4       8.325   4.186  -0.590  0.00  0.00    -0.302 N 
ATOM     21  H   HIS A   4       7.997   5.138  -0.735  0.00  0.00    +0.150 HD
ATOM     22  O   LEU A   3       7.849   2.021  -0.041  0.00  0.00    -0.274 OA
BRANCH  20  23
ATOM     23  CA  HIS A   4       9.773   3.969  -0.629  0.00  0.00    +0.165 C 
BRANCH  23  24
ATOM     24  C   HIS A   4      10.459   5.344  -0.577  0.00  0.00    +0.234 C 
ATOM     25  O   HIS A   4       9.818   6.392  -0.677  0.00  0.00    -0.274 OA
ATOM     26  N   SER A   5      11.822   5.329  -0.388  0.00  0.00    -0.302 N 
ATOM     27  H   SER A   5      12.330   4.447  -0.540  0.00  0.00    +0.150 HD
BRANCH  26  28
ATOM     28  CA  SER A   5      12.599   6.568  -0.422  0.00  0.00    +0.161 C 
BRANCH  28  29
ATOM     29  CB  SER A   5      14.086   6.257  -0.526  0.00  0.00    +0.247 C 
ATOM     30  OG  SER A   5      14.537   5.196  -0.954  0.00  0.00    -0.299 OA
ENDBRANCH  28  29
BRANCH  28  31
ATOM     31  C   SER A   5      12.359   7.443   0.817  0.00  0.00    +0.185 C 
BRANCH  31  32
ATOM     32  O   SER A   5      12.668   6.732   2.015  0.00  0.00    -0.393 OA
ATOM     33  H   SER A   5      12.127   5.920   2.000  0.00  0.00    +0.209 HD
ENDBRANCH  31  32
ENDBRANCH  28  31
ENDBRANCH  26  28
ENDBRANCH  23  24
BRANCH  23  34
ATOM     34  CB  HIS A   4      10.199   3.196  -1.884  0.00  0.00    +0.088 C 
BRANCH  34  35
ATOM     35  CG  HIS A   4      11.145   2.105  -1.535  0.00  0.00    +0.061 A 
ATOM     36  CD2 HIS A   4      10.975   0.742  -1.640  0.00  0.00    +0.107 A 
ATOM     37  NE2 HIS A   4      12.124   0.200  -1.139  0.00  0.00    -0.351 N 
ATOM     38  HE2 HIS A   4      12.337  -0.785  -1.054  0.00  0.00    +0.166 HD
ATOM     39  CE1 HIS A   4      12.932   1.234  -0.756  0.00  0.00    +0.196 A 
ATOM     40  ND1 HIS A   4      12.363   2.399  -0.972  0.00  0.00    -0.241 NA
ENDBRANCH  34  35
ENDBRANCH  23  34
ENDBRANCH  20  23
ENDBRANCH   1  19
BRANCH   1  41
ATOM     41  CB  LEU A   3       5.689   4.439   0.989  0.00  0.00    +0.034 C 
BRANCH  41  42
ATOM     42  CG  LEU A   3       4.251   4.986   1.071  0.00  0.00    -0.015 C 
ATOM     43  CD2 LEU A   3       4.043   5.692   2.414  0.00  0.00    +0.007 C 
ATOM     44  CD1 LEU A   3       3.938   5.958  -0.069  0.00  0.00    +0.007 C 
ENDBRANCH  41  42
ENDBRANCH   1  41
TORSDOF 17
