MODEL 1
REMARK VINA RESULT:      -6.3      0.000      0.000
REMARK  Name = KLQS-mmff94.pdb
REMARK  22 active torsions:
REMARK  status: ('A' for Active; 'I' for Inactive)
REMARK    1  A    between atoms: _1  and  _2
REMARK    2  A    between atoms: _2  and  _3
REMARK    3  A    between atoms: _2  and  _5
REMARK    4  A    between atoms: _5  and  _6
REMARK    5  A    between atoms: _6  and  _7
REMARK    6  A    between atoms: _7  and  _8
REMARK    7  A    between atoms: _8  and  _9
REMARK    8  A    between atoms: _23  and  _24
REMARK    9  A    between atoms: _24  and  _25
REMARK   10  A    between atoms: _24  and  _27
REMARK   11  A    between atoms: _27  and  _28
REMARK   12  A    between atoms: _28  and  _29
REMARK   13  A    between atoms: _28  and  _30
REMARK   14  A    between atoms: _42  and  _43
REMARK   15  A    between atoms: _43  and  _44
REMARK   16  A    between atoms: _43  and  _46
REMARK   17  A    between atoms: _46  and  _47
REMARK   18  A    between atoms: _47  and  _48
REMARK   19  A    between atoms: _59  and  _60
REMARK   20  A    between atoms: _60  and  _61
REMARK   21  A    between atoms: _60  and  _63
REMARK   22  A    between atoms: _63  and  _64
REMARK                            x       y       z     vdW  Elec       q    Type
REMARK                         _______ _______ _______ _____ _____    ______ ____
ROOT
ATOM      1  C   LEU A   2       5.976  -2.154  24.225  0.00  0.00    +0.234 C 
ATOM      2  O   LEU A   2       5.060  -1.678  24.898  0.00  0.00    -0.274 OA
ATOM      3  N   GLN A   3       7.161  -2.559  24.790  0.00  0.00    -0.302 N 
ATOM      4  H   GLN A   3       7.892  -2.981  24.217  0.00  0.00    +0.150 HD
ENDROOT
BRANCH   3   5
ATOM      5  CA  GLN A   3       7.446  -2.434  26.219  0.00  0.00    +0.159 C 
BRANCH   5   6
ATOM      6  C   GLN A   3       8.195  -1.096  26.376  0.00  0.00    +0.234 C 
ATOM      7  N   SER A   4       8.891  -0.665  25.279  0.00  0.00    -0.302 N 
ATOM      8  H   SER A   4       8.892  -1.191  24.410  0.00  0.00    +0.150 HD
ATOM      9  O   GLN A   3       8.153  -0.445  27.420  0.00  0.00    -0.274 OA
BRANCH   7  10
ATOM     10  CA  SER A   4       9.561   0.638  25.241  0.00  0.00    +0.161 C 
BRANCH  10  11
ATOM     11  C   SER A   4       8.619   1.613  24.550  0.00  0.00    +0.247 C 
ATOM     12  O   SER A   4       8.999   2.381  23.663  0.00  0.00    -0.299 OA
ENDBRANCH  10  11
BRANCH  10  13
ATOM     13  CB  SER A   4      10.909   0.606  24.517  0.00  0.00    +0.185 C 
BRANCH  13  14
ATOM     14  OG  SER A   4      10.809  -0.104  23.285  0.00  0.00    -0.393 OA
ATOM     15  H   SER A   4      11.511   0.238  22.701  0.00  0.00    +0.209 HD
ENDBRANCH  13  14
ENDBRANCH  10  13
ENDBRANCH   7  10
ENDBRANCH   5   6
BRANCH   5  16
ATOM     16  CB  GLN A   3       8.289  -3.624  26.709  0.00  0.00    +0.041 C 
BRANCH  16  17
ATOM     17  CG  GLN A   3       7.935  -4.941  26.017  0.00  0.00    +0.098 C 
BRANCH  17  18
ATOM     18  CD  GLN A   3       9.093  -5.417  25.157  0.00  0.00    +0.211 C 
ATOM     19  NE2 GLN A   3      10.296  -5.462  25.795  0.00  0.00    -0.329 N 
ATOM     20 HE21 GLN A   3      11.104  -5.817  25.301  0.00  0.00    +0.145 HD
ATOM     21 HE22 GLN A   3      10.378  -5.385  26.803  0.00  0.00    +0.145 HD
ATOM     22  OE1 GLN A   3       8.994  -5.684  23.959  0.00  0.00    -0.276 OA
ENDBRANCH  17  18
ENDBRANCH  16  17
ENDBRANCH   5  16
ENDBRANCH   3   5
BRANCH   1  23
ATOM     23  CA  LEU A   2       5.879  -2.364  22.693  0.00  0.00    +0.159 C 
BRANCH  23  25
ATOM     24  C   LYS A   1       7.640  -0.840  21.854  0.00  0.00    +0.230 C 
ATOM     25  N   LEU A   2       6.309  -1.123  22.052  0.00  0.00    -0.303 N 
ATOM     26  H   LEU A   2       5.631  -0.691  21.434  0.00  0.00    +0.149 HD
ATOM     27  O   LYS A   1       8.552  -1.479  22.375  0.00  0.00    -0.274 OA
BRANCH  24  28
ATOM     28  CA  LYS A   1       7.907   0.329  20.881  0.00  0.00    +0.138 C 
BRANCH  28  29
ATOM     29  N   LYS A   1       9.220   0.920  21.181  0.00  0.00    -0.320 NA
ATOM     30  H1  LYS A   1       9.814   0.849  20.353  0.00  0.00    +0.119 HD
ATOM     31  H2  LYS A   1       9.092   1.928  21.315  0.00  0.00    +0.119 HD
ENDBRANCH  28  29
BRANCH  28  32
ATOM     32  CB  LYS A   1       7.888  -0.189  19.431  0.00  0.00    +0.028 C 
BRANCH  32  33
ATOM     33  CG  LYS A   1       6.891   0.592  18.573  0.00  0.00    +0.007 C 
BRANCH  33  34
ATOM     34  CD  LYS A   1       5.430   0.288  18.905  0.00  0.00    +0.051 C 
BRANCH  34  35
ATOM     35  CE  LYS A   1       4.683   1.608  19.046  0.00  0.00    +0.127 C 
BRANCH  35  36
ATOM     36  NZ  LYS A   1       4.877   2.179  20.392  0.00  0.00    +0.219 N 
ATOM     37  HZ1 LYS A   1       5.473   1.584  20.979  0.00  0.00    +0.199 HD
ATOM     38  HZ2 LYS A   1       5.379   3.077  20.282  0.00  0.00    +0.199 HD
ATOM     39  HZ3 LYS A   1       3.992   2.351  20.883  0.00  0.00    +0.199 HD
ENDBRANCH  35  36
ENDBRANCH  34  35
ENDBRANCH  33  34
ENDBRANCH  32  33
ENDBRANCH  28  32
ENDBRANCH  24  28
ENDBRANCH  23  25
BRANCH  23  40
ATOM     40  CB  LEU A   2       6.746  -3.543  22.233  0.00  0.00    +0.034 C 
BRANCH  40  41
ATOM     41  CG  LEU A   2       5.948  -4.837  21.967  0.00  0.00    -0.015 C 
ATOM     42  CD2 LEU A   2       5.431  -5.475  23.259  0.00  0.00    +0.007 C 
ATOM     43  CD1 LEU A   2       6.819  -5.842  21.211  0.00  0.00    +0.007 C 
ENDBRANCH  40  41
ENDBRANCH  23  40
ENDBRANCH   1  23
TORSDOF 20
ENDMDL
MODEL 2
REMARK VINA RESULT:      -6.2      2.113      5.933
REMARK  Name = KLQS-mmff94.pdb
REMARK  22 active torsions:
REMARK  status: ('A' for Active; 'I' for Inactive)
REMARK    1  A    between atoms: _1  and  _2
REMARK    2  A    between atoms: _2  and  _3
REMARK    3  A    between atoms: _2  and  _5
REMARK    4  A    between atoms: _5  and  _6
REMARK    5  A    between atoms: _6  and  _7
REMARK    6  A    between atoms: _7  and  _8
REMARK    7  A    between atoms: _8  and  _9
REMARK    8  A    between atoms: _23  and  _24
REMARK    9  A    between atoms: _24  and  _25
REMARK   10  A    between atoms: _24  and  _27
REMARK   11  A    between atoms: _27  and  _28
REMARK   12  A    between atoms: _28  and  _29
REMARK   13  A    between atoms: _28  and  _30
REMARK   14  A    between atoms: _42  and  _43
REMARK   15  A    between atoms: _43  and  _44
REMARK   16  A    between atoms: _43  and  _46
REMARK   17  A    between atoms: _46  and  _47
REMARK   18  A    between atoms: _47  and  _48
REMARK   19  A    between atoms: _59  and  _60
REMARK   20  A    between atoms: _60  and  _61
REMARK   21  A    between atoms: _60  and  _63
REMARK   22  A    between atoms: _63  and  _64
REMARK                            x       y       z     vdW  Elec       q    Type
REMARK                         _______ _______ _______ _____ _____    ______ ____
ROOT
ATOM      1  C   LEU A   2       8.279  -1.091  21.473  0.00  0.00    +0.234 C 
ATOM      2  O   LEU A   2       9.483  -1.339  21.574  0.00  0.00    -0.274 OA
ATOM      3  N   GLN A   3       7.316  -1.948  21.946  0.00  0.00    -0.302 N 
ATOM      4  H   GLN A   3       6.327  -1.705  21.880  0.00  0.00    +0.150 HD
ENDROOT
BRANCH   3   5
ATOM      5  CA  GLN A   3       7.629  -3.230  22.577  0.00  0.00    +0.159 C 
BRANCH   5   6
ATOM      6  C   GLN A   3       6.413  -4.136  22.300  0.00  0.00    +0.234 C 
ATOM      7  N   SER A   4       5.927  -4.833  23.373  0.00  0.00    -0.302 N 
ATOM      8  H   SER A   4       6.336  -4.737  24.298  0.00  0.00    +0.150 HD
ATOM      9  O   GLN A   3       5.900  -4.212  21.184  0.00  0.00    -0.274 OA
BRANCH   7  10
ATOM     10  CA  SER A   4       4.712  -5.648  23.290  0.00  0.00    +0.161 C 
BRANCH  10  11
ATOM     11  C   SER A   4       3.533  -4.740  23.606  0.00  0.00    +0.247 C 
ATOM     12  O   SER A   4       2.768  -4.958  24.549  0.00  0.00    -0.299 OA
ENDBRANCH  10  11
BRANCH  10  13
ATOM     13  CB  SER A   4       4.722  -6.849  24.238  0.00  0.00    +0.185 C 
BRANCH  13  14
ATOM     14  OG  SER A   4       3.643  -7.736  23.948  0.00  0.00    -0.393 OA
ATOM     15  H   SER A   4       3.102  -7.310  23.259  0.00  0.00    +0.209 HD
ENDBRANCH  13  14
ENDBRANCH  10  13
ENDBRANCH   7  10
ENDBRANCH   5   6
BRANCH   5  16
ATOM     16  CB  GLN A   3       7.876  -3.045  24.084  0.00  0.00    +0.041 C 
BRANCH  16  17
ATOM     17  CG  GLN A   3       9.234  -3.576  24.544  0.00  0.00    +0.098 C 
BRANCH  17  18
ATOM     18  CD  GLN A   3       9.065  -4.877  25.309  0.00  0.00    +0.211 C 
ATOM     19  NE2 GLN A   3      10.231  -5.486  25.661  0.00  0.00    -0.329 N 
ATOM     20 HE21 GLN A   3      10.199  -6.332  26.217  0.00  0.00    +0.145 HD
ATOM     21 HE22 GLN A   3      11.127  -5.015  25.604  0.00  0.00    +0.145 HD
ATOM     22  OE1 GLN A   3       7.973  -5.398  25.547  0.00  0.00    -0.276 OA
ENDBRANCH  17  18
ENDBRANCH  16  17
ENDBRANCH   5  16
ENDBRANCH   3   5
BRANCH   1  23
ATOM     23  CA  LEU A   2       7.736   0.209  20.829  0.00  0.00    +0.159 C 
BRANCH  23  25
ATOM     24  C   LYS A   1       8.086   2.249  22.187  0.00  0.00    +0.230 C 
ATOM     25  N   LEU A   2       8.568   1.313  21.303  0.00  0.00    -0.303 N 
ATOM     26  H   LEU A   2       9.569   1.150  21.278  0.00  0.00    +0.149 HD
ATOM     27  O   LYS A   1       6.895   2.358  22.473  0.00  0.00    -0.274 OA
BRANCH  24  28
ATOM     28  CA  LYS A   1       9.172   3.136  22.835  0.00  0.00    +0.138 C 
BRANCH  28  29
ATOM     29  N   LYS A   1       8.641   4.494  23.023  0.00  0.00    -0.320 NA
ATOM     30  H1  LYS A   1       9.064   5.116  22.330  0.00  0.00    +0.119 HD
ATOM     31  H2  LYS A   1       7.647   4.484  22.779  0.00  0.00    +0.119 HD
ENDBRANCH  28  29
BRANCH  28  32
ATOM     32  CB  LYS A   1       9.580   2.543  24.196  0.00  0.00    +0.028 C 
BRANCH  32  33
ATOM     33  CG  LYS A   1      10.735   1.550  24.049  0.00  0.00    +0.007 C 
BRANCH  33  34
ATOM     34  CD  LYS A   1      10.536   0.260  24.844  0.00  0.00    +0.051 C 
BRANCH  34  35
ATOM     35  CE  LYS A   1       9.081   0.189  25.290  0.00  0.00    +0.127 C 
BRANCH  35  36
ATOM     36  NZ  LYS A   1       8.978  -0.376  26.650  0.00  0.00    +0.219 N 
ATOM     37  HZ1 LYS A   1       8.024  -0.310  27.021  0.00  0.00    +0.199 HD
ATOM     38  HZ2 LYS A   1       9.199  -1.385  26.587  0.00  0.00    +0.199 HD
ATOM     39  HZ3 LYS A   1       9.625   0.065  27.313  0.00  0.00    +0.199 HD
ENDBRANCH  35  36
ENDBRANCH  34  35
ENDBRANCH  33  34
ENDBRANCH  32  33
ENDBRANCH  28  32
ENDBRANCH  24  28
ENDBRANCH  23  25
BRANCH  23  40
ATOM     40  CB  LEU A   2       7.759   0.128  19.298  0.00  0.00    +0.034 C 
BRANCH  40  41
ATOM     41  CG  LEU A   2       6.357   0.113  18.653  0.00  0.00    -0.015 C 
ATOM     42  CD2 LEU A   2       5.469   1.247  19.169  0.00  0.00    +0.007 C 
ATOM     43  CD1 LEU A   2       5.677  -1.233  18.915  0.00  0.00    +0.007 C 
ENDBRANCH  40  41
ENDBRANCH  23  40
ENDBRANCH   1  23
TORSDOF 20
ENDMDL
MODEL 3
REMARK VINA RESULT:      -6.2      2.470      7.629
REMARK  Name = KLQS-mmff94.pdb
REMARK  22 active torsions:
REMARK  status: ('A' for Active; 'I' for Inactive)
REMARK    1  A    between atoms: _1  and  _2
REMARK    2  A    between atoms: _2  and  _3
REMARK    3  A    between atoms: _2  and  _5
REMARK    4  A    between atoms: _5  and  _6
REMARK    5  A    between atoms: _6  and  _7
REMARK    6  A    between atoms: _7  and  _8
REMARK    7  A    between atoms: _8  and  _9
REMARK    8  A    between atoms: _23  and  _24
REMARK    9  A    between atoms: _24  and  _25
REMARK   10  A    between atoms: _24  and  _27
REMARK   11  A    between atoms: _27  and  _28
REMARK   12  A    between atoms: _28  and  _29
REMARK   13  A    between atoms: _28  and  _30
REMARK   14  A    between atoms: _42  and  _43
REMARK   15  A    between atoms: _43  and  _44
REMARK   16  A    between atoms: _43  and  _46
REMARK   17  A    between atoms: _46  and  _47
REMARK   18  A    between atoms: _47  and  _48
REMARK   19  A    between atoms: _59  and  _60
REMARK   20  A    between atoms: _60  and  _61
REMARK   21  A    between atoms: _60  and  _63
REMARK   22  A    between atoms: _63  and  _64
REMARK                            x       y       z     vdW  Elec       q    Type
REMARK                         _______ _______ _______ _____ _____    ______ ____
ROOT
ATOM      1  C   LEU A   2       7.452  -1.067  23.800  0.00  0.00    +0.234 C 
ATOM      2  O   LEU A   2       6.412  -0.566  24.232  0.00  0.00    -0.274 OA
ATOM      3  N   GLN A   3       7.618  -1.369  22.471  0.00  0.00    -0.302 N 
ATOM      4  H   GLN A   3       8.500  -1.752  22.132  0.00  0.00    +0.150 HD
ENDROOT
BRANCH   3   5
ATOM      5  CA  GLN A   3       6.576  -1.152  21.468  0.00  0.00    +0.159 C 
BRANCH   5   6
ATOM      6  C   GLN A   3       6.011  -2.550  21.148  0.00  0.00    +0.234 C 
ATOM      7  N   SER A   4       6.095  -3.476  22.152  0.00  0.00    -0.302 N 
ATOM      8  H   SER A   4       6.489  -3.241  23.059  0.00  0.00    +0.150 HD
ATOM      9  O   GLN A   3       5.497  -2.811  20.060  0.00  0.00    -0.274 OA
BRANCH   7  10
ATOM     10  CA  SER A   4       5.504  -4.811  22.037  0.00  0.00    +0.161 C 
BRANCH  10  11
ATOM     11  C   SER A   4       5.203  -5.300  23.446  0.00  0.00    +0.247 C 
ATOM     12  O   SER A   4       5.242  -6.493  23.752  0.00  0.00    -0.299 OA
ENDBRANCH  10  11
BRANCH  10  13
ATOM     13  CB  SER A   4       6.407  -5.814  21.314  0.00  0.00    +0.185 C 
BRANCH  13  14
ATOM     14  OG  SER A   4       7.544  -6.142  22.110  0.00  0.00    -0.393 OA
ATOM     15  H   SER A   4       7.211  -6.397  22.989  0.00  0.00    +0.209 HD
ENDBRANCH  13  14
ENDBRANCH  10  13
ENDBRANCH   7  10
ENDBRANCH   5   6
BRANCH   5  16
ATOM     16  CB  GLN A   3       7.159  -0.470  20.219  0.00  0.00    +0.041 C 
BRANCH  16  17
ATOM     17  CG  GLN A   3       6.266   0.640  19.663  0.00  0.00    +0.098 C 
BRANCH  17  18
ATOM     18  CD  GLN A   3       6.015   0.428  18.181  0.00  0.00    +0.211 C 
ATOM     19  NE2 GLN A   3       5.623  -0.833  17.844  0.00  0.00    -0.329 N 
ATOM     20 HE21 GLN A   3       5.388  -1.037  16.881  0.00  0.00    +0.145 HD
ATOM     21 HE22 GLN A   3       5.324  -1.511  18.537  0.00  0.00    +0.145 HD
ATOM     22  OE1 GLN A   3       6.207   1.289  17.321  0.00  0.00    -0.276 OA
ENDBRANCH  17  18
ENDBRANCH  16  17
ENDBRANCH   5  16
ENDBRANCH   3   5
BRANCH   1  23
ATOM     23  CA  LEU A   2       8.674  -1.384  24.698  0.00  0.00    +0.159 C 
BRANCH  23  25
ATOM     24  C   LYS A   1       8.665  -3.852  24.505  0.00  0.00    +0.230 C 
ATOM     25  N   LEU A   2       8.472  -2.718  25.259  0.00  0.00    -0.303 N 
ATOM     26  H   LEU A   2       8.572  -2.791  26.266  0.00  0.00    +0.149 HD
ATOM     27  O   LYS A   1       8.805  -3.835  23.283  0.00  0.00    -0.274 OA
BRANCH  24  28
ATOM     28  CA  LYS A   1       8.737  -5.160  25.323  0.00  0.00    +0.138 C 
BRANCH  28  29
ATOM     29  N   LYS A   1      10.139  -5.590  25.429  0.00  0.00    -0.320 NA
ATOM     30  H1  LYS A   1      10.167  -6.549  25.783  0.00  0.00    +0.119 HD
ATOM     31  H2  LYS A   1      10.523  -5.659  24.481  0.00  0.00    +0.119 HD
ENDBRANCH  28  29
BRANCH  28  32
ATOM     32  CB  LYS A   1       8.157  -4.922  26.730  0.00  0.00    +0.028 C 
BRANCH  32  33
ATOM     33  CG  LYS A   1       6.685  -5.331  26.804  0.00  0.00    +0.007 C 
BRANCH  33  34
ATOM     34  CD  LYS A   1       6.194  -5.591  28.228  0.00  0.00    +0.051 C 
BRANCH  34  35
ATOM     35  CE  LYS A   1       5.312  -6.833  28.214  0.00  0.00    +0.127 C 
BRANCH  35  36
ATOM     36  NZ  LYS A   1       4.883  -7.155  26.840  0.00  0.00    +0.219 N 
ATOM     37  HZ1 LYS A   1       4.042  -6.633  26.568  0.00  0.00    +0.199 HD
ATOM     38  HZ2 LYS A   1       5.637  -6.853  26.198  0.00  0.00    +0.199 HD
ATOM     39  HZ3 LYS A   1       4.712  -8.158  26.702  0.00  0.00    +0.199 HD
ENDBRANCH  35  36
ENDBRANCH  34  35
ENDBRANCH  33  34
ENDBRANCH  32  33
ENDBRANCH  28  32
ENDBRANCH  24  28
ENDBRANCH  23  25
BRANCH  23  40
ATOM     40  CB  LEU A   2       9.985  -1.320  23.904  0.00  0.00    +0.034 C 
BRANCH  40  41
ATOM     41  CG  LEU A   2      10.562   0.105  23.766  0.00  0.00    -0.015 C 
ATOM     42  CD2 LEU A   2      10.036   1.050  24.848  0.00  0.00    +0.007 C 
ATOM     43  CD1 LEU A   2      10.229   0.671  22.384  0.00  0.00    +0.007 C 
ENDBRANCH  40  41
ENDBRANCH  23  40
ENDBRANCH   1  23
TORSDOF 20
ENDMDL
MODEL 4
REMARK VINA RESULT:      -6.1      2.362      6.380
REMARK  Name = KLQS-mmff94.pdb
REMARK  22 active torsions:
REMARK  status: ('A' for Active; 'I' for Inactive)
REMARK    1  A    between atoms: _1  and  _2
REMARK    2  A    between atoms: _2  and  _3
REMARK    3  A    between atoms: _2  and  _5
REMARK    4  A    between atoms: _5  and  _6
REMARK    5  A    between atoms: _6  and  _7
REMARK    6  A    between atoms: _7  and  _8
REMARK    7  A    between atoms: _8  and  _9
REMARK    8  A    between atoms: _23  and  _24
REMARK    9  A    between atoms: _24  and  _25
REMARK   10  A    between atoms: _24  and  _27
REMARK   11  A    between atoms: _27  and  _28
REMARK   12  A    between atoms: _28  and  _29
REMARK   13  A    between atoms: _28  and  _30
REMARK   14  A    between atoms: _42  and  _43
REMARK   15  A    between atoms: _43  and  _44
REMARK   16  A    between atoms: _43  and  _46
REMARK   17  A    between atoms: _46  and  _47
REMARK   18  A    between atoms: _47  and  _48
REMARK   19  A    between atoms: _59  and  _60
REMARK   20  A    between atoms: _60  and  _61
REMARK   21  A    between atoms: _60  and  _63
REMARK   22  A    between atoms: _63  and  _64
REMARK                            x       y       z     vdW  Elec       q    Type
REMARK                         _______ _______ _______ _____ _____    ______ ____
ROOT
ATOM      1  C   LEU A   2       8.602  -2.052  22.173  0.00  0.00    +0.234 C 
ATOM      2  O   LEU A   2       9.830  -2.003  22.073  0.00  0.00    -0.274 OA
ATOM      3  N   GLN A   3       7.803  -0.979  21.864  0.00  0.00    -0.302 N 
ATOM      4  H   GLN A   3       6.787  -1.055  21.922  0.00  0.00    +0.150 HD
ENDROOT
BRANCH   3   5
ATOM      5  CA  GLN A   3       8.334   0.310  21.422  0.00  0.00    +0.159 C 
BRANCH   5   6
ATOM      6  C   GLN A   3       8.254   1.234  22.654  0.00  0.00    +0.234 C 
ATOM      7  N   SER A   4       8.831   2.468  22.518  0.00  0.00    -0.302 N 
ATOM      8  H   SER A   4       9.266   2.757  21.646  0.00  0.00    +0.150 HD
ATOM      9  O   GLN A   3       7.688   0.888  23.691  0.00  0.00    -0.274 OA
BRANCH   7  10
ATOM     10  CA  SER A   4       8.740   3.493  23.560  0.00  0.00    +0.161 C 
BRANCH  10  11
ATOM     11  C   SER A   4       7.574   4.403  23.203  0.00  0.00    +0.247 C 
ATOM     12  O   SER A   4       7.289   4.682  22.036  0.00  0.00    -0.299 OA
ENDBRANCH  10  11
BRANCH  10  13
ATOM     13  CB  SER A   4      10.021   4.315  23.716  0.00  0.00    +0.185 C 
BRANCH  13  14
ATOM     14  OG  SER A   4       9.853   5.627  23.184  0.00  0.00    -0.393 OA
ATOM     15  H   SER A   4      10.180   5.607  22.267  0.00  0.00    +0.209 HD
ENDBRANCH  13  14
ENDBRANCH  10  13
ENDBRANCH   7  10
ENDBRANCH   5   6
BRANCH   5  16
ATOM     16  CB  GLN A   3       7.516   0.858  20.241  0.00  0.00    +0.041 C 
BRANCH  16  17
ATOM     17  CG  GLN A   3       7.595  -0.021  18.992  0.00  0.00    +0.098 C 
BRANCH  17  18
ATOM     18  CD  GLN A   3       6.203  -0.406  18.524  0.00  0.00    +0.211 C 
ATOM     19  NE2 GLN A   3       5.417  -0.976  19.481  0.00  0.00    -0.329 N 
ATOM     20 HE21 GLN A   3       4.459  -1.212  19.257  0.00  0.00    +0.145 HD
ATOM     21 HE22 GLN A   3       5.662  -0.957  20.465  0.00  0.00    +0.145 HD
ATOM     22  OE1 GLN A   3       5.810  -0.285  17.362  0.00  0.00    -0.276 OA
ENDBRANCH  17  18
ENDBRANCH  16  17
ENDBRANCH   5  16
ENDBRANCH   3   5
BRANCH   1  23
ATOM     23  CA  LEU A   2       7.841  -3.321  22.630  0.00  0.00    +0.159 C 
BRANCH  23  25
ATOM     24  C   LYS A   1       8.537  -3.940  24.924  0.00  0.00    +0.230 C 
ATOM     25  N   LEU A   2       7.699  -3.248  24.083  0.00  0.00    -0.303 N 
ATOM     26  H   LEU A   2       7.251  -2.409  24.437  0.00  0.00    +0.149 HD
ATOM     27  O   LYS A   1       9.308  -4.817  24.538  0.00  0.00    -0.274 OA
BRANCH  24  28
ATOM     28  CA  LYS A   1       8.469  -3.498  26.402  0.00  0.00    +0.138 C 
BRANCH  28  29
ATOM     29  N   LYS A   1       8.617  -2.036  26.479  0.00  0.00    -0.320 NA
ATOM     30  H1  LYS A   1       9.612  -1.802  26.469  0.00  0.00    +0.119 HD
ATOM     31  H2  LYS A   1       8.253  -1.633  25.611  0.00  0.00    +0.119 HD
ENDBRANCH  28  29
BRANCH  28  32
ATOM     32  CB  LYS A   1       7.115  -3.916  27.005  0.00  0.00    +0.028 C 
BRANCH  32  33
ATOM     33  CG  LYS A   1       6.990  -5.439  27.093  0.00  0.00    +0.007 C 
BRANCH  33  34
ATOM     34  CD  LYS A   1       5.793  -5.998  26.323  0.00  0.00    +0.051 C 
BRANCH  34  35
ATOM     35  CE  LYS A   1       4.822  -6.613  27.324  0.00  0.00    +0.127 C 
BRANCH  35  36
ATOM     36  NZ  LYS A   1       5.542  -7.442  28.310  0.00  0.00    +0.219 N 
ATOM     37  HZ1 LYS A   1       5.383  -8.444  28.159  0.00  0.00    +0.199 HD
ATOM     38  HZ2 LYS A   1       6.556  -7.282  28.172  0.00  0.00    +0.199 HD
ATOM     39  HZ3 LYS A   1       5.298  -7.208  29.279  0.00  0.00    +0.199 HD
ENDBRANCH  35  36
ENDBRANCH  34  35
ENDBRANCH  33  34
ENDBRANCH  32  33
ENDBRANCH  28  32
ENDBRANCH  24  28
ENDBRANCH  23  25
BRANCH  23  40
ATOM     40  CB  LEU A   2       6.469  -3.427  21.954  0.00  0.00    +0.034 C 
BRANCH  40  41
ATOM     41  CG  LEU A   2       5.991  -4.878  21.736  0.00  0.00    -0.015 C 
ATOM     42  CD2 LEU A   2       4.976  -5.319  22.793  0.00  0.00    +0.007 C 
ATOM     43  CD1 LEU A   2       7.190  -5.830  21.746  0.00  0.00    +0.007 C 
ENDBRANCH  40  41
ENDBRANCH  23  40
ENDBRANCH   1  23
TORSDOF 20
ENDMDL
MODEL 5
REMARK VINA RESULT:      -6.1      2.062      6.618
REMARK  Name = KLQS-mmff94.pdb
REMARK  22 active torsions:
REMARK  status: ('A' for Active; 'I' for Inactive)
REMARK    1  A    between atoms: _1  and  _2
REMARK    2  A    between atoms: _2  and  _3
REMARK    3  A    between atoms: _2  and  _5
REMARK    4  A    between atoms: _5  and  _6
REMARK    5  A    between atoms: _6  and  _7
REMARK    6  A    between atoms: _7  and  _8
REMARK    7  A    between atoms: _8  and  _9
REMARK    8  A    between atoms: _23  and  _24
REMARK    9  A    between atoms: _24  and  _25
REMARK   10  A    between atoms: _24  and  _27
REMARK   11  A    between atoms: _27  and  _28
REMARK   12  A    between atoms: _28  and  _29
REMARK   13  A    between atoms: _28  and  _30
REMARK   14  A    between atoms: _42  and  _43
REMARK   15  A    between atoms: _43  and  _44
REMARK   16  A    between atoms: _43  and  _46
REMARK   17  A    between atoms: _46  and  _47
REMARK   18  A    between atoms: _47  and  _48
REMARK   19  A    between atoms: _59  and  _60
REMARK   20  A    between atoms: _60  and  _61
REMARK   21  A    between atoms: _60  and  _63
REMARK   22  A    between atoms: _63  and  _64
REMARK                            x       y       z     vdW  Elec       q    Type
REMARK                         _______ _______ _______ _____ _____    ______ ____
ROOT
ATOM      1  C   LEU A   2       8.488  -2.020  21.870  0.00  0.00    +0.234 C 
ATOM      2  O   LEU A   2       9.718  -1.957  21.819  0.00  0.00    -0.274 OA
ATOM      3  N   GLN A   3       7.688  -0.994  21.431  0.00  0.00    -0.302 N 
ATOM      4  H   GLN A   3       6.672  -1.083  21.453  0.00  0.00    +0.150 HD
ENDROOT
BRANCH   3   5
ATOM      5  CA  GLN A   3       8.219   0.261  20.899  0.00  0.00    +0.159 C 
BRANCH   5   6
ATOM      6  C   GLN A   3       8.827   0.999  22.109  0.00  0.00    +0.234 C 
ATOM      7  N   SER A   4       8.322   0.660  23.335  0.00  0.00    -0.302 N 
ATOM      8  H   SER A   4       7.604  -0.052  23.435  0.00  0.00    +0.150 HD
ATOM      9  O   GLN A   3       9.726   1.829  21.979  0.00  0.00    -0.274 OA
BRANCH   7  10
ATOM     10  CA  SER A   4       8.874   1.194  24.582  0.00  0.00    +0.161 C 
BRANCH  10  11
ATOM     11  C   SER A   4      10.021   0.286  24.999  0.00  0.00    +0.247 C 
ATOM     12  O   SER A   4       9.989  -0.936  24.831  0.00  0.00    -0.299 OA
ENDBRANCH  10  11
BRANCH  10  13
ATOM     13  CB  SER A   4       7.843   1.290  25.710  0.00  0.00    +0.185 C 
BRANCH  13  14
ATOM     14  OG  SER A   4       8.219   0.472  26.815  0.00  0.00    -0.393 OA
ATOM     15  H   SER A   4       9.096   0.776  27.110  0.00  0.00    +0.209 HD
ENDBRANCH  13  14
ENDBRANCH  10  13
ENDBRANCH   7  10
ENDBRANCH   5   6
BRANCH   5  16
ATOM     16  CB  GLN A   3       7.104   1.080  20.229  0.00  0.00    +0.041 C 
BRANCH  16  17
ATOM     17  CG  GLN A   3       5.947   0.222  19.717  0.00  0.00    +0.098 C 
BRANCH  17  18
ATOM     18  CD  GLN A   3       5.840   0.320  18.205  0.00  0.00    +0.211 C 
ATOM     19  NE2 GLN A   3       5.562   1.568  17.734  0.00  0.00    -0.329 N 
ATOM     20 HE21 GLN A   3       5.526   1.722  16.734  0.00  0.00    +0.145 HD
ATOM     21 HE22 GLN A   3       5.626   2.395  18.318  0.00  0.00    +0.145 HD
ATOM     22  OE1 GLN A   3       5.928  -0.646  17.446  0.00  0.00    -0.276 OA
ENDBRANCH  17  18
ENDBRANCH  16  17
ENDBRANCH   5  16
ENDBRANCH   3   5
BRANCH   1  23
ATOM     23  CA  LEU A   2       7.727  -3.258  22.406  0.00  0.00    +0.159 C 
BRANCH  23  25
ATOM     24  C   LYS A   1       8.431  -4.242  24.566  0.00  0.00    +0.230 C 
ATOM     25  N   LEU A   2       7.817  -3.231  23.864  0.00  0.00    -0.303 N 
ATOM     26  H   LEU A   2       7.777  -2.310  24.289  0.00  0.00    +0.149 HD
ATOM     27  O   LYS A   1       8.747  -5.318  24.062  0.00  0.00    -0.274 OA
BRANCH  24  28
ATOM     28  CA  LYS A   1       8.734  -3.904  26.042  0.00  0.00    +0.138 C 
BRANCH  28  29
ATOM     29  N   LYS A   1       8.172  -2.583  26.362  0.00  0.00    -0.320 NA
ATOM     30  H1  LYS A   1       7.645  -2.649  27.236  0.00  0.00    +0.119 HD
ATOM     31  H2  LYS A   1       8.948  -1.952  26.581  0.00  0.00    +0.119 HD
ENDBRANCH  28  29
BRANCH  28  32
ATOM     32  CB  LYS A   1       8.107  -4.973  26.956  0.00  0.00    +0.028 C 
BRANCH  32  33
ATOM     33  CG  LYS A   1       6.592  -5.056  26.760  0.00  0.00    +0.007 C 
BRANCH  33  34
ATOM     34  CD  LYS A   1       5.812  -5.157  28.071  0.00  0.00    +0.051 C 
BRANCH  34  35
ATOM     35  CE  LYS A   1       5.363  -6.601  28.255  0.00  0.00    +0.127 C 
BRANCH  35  36
ATOM     36  NZ  LYS A   1       6.321  -7.344  29.096  0.00  0.00    +0.219 N 
ATOM     37  HZ1 LYS A   1       7.254  -7.386  28.670  0.00  0.00    +0.199 HD
ATOM     38  HZ2 LYS A   1       6.427  -6.824  29.984  0.00  0.00    +0.199 HD
ATOM     39  HZ3 LYS A   1       6.008  -8.299  29.306  0.00  0.00    +0.199 HD
ENDBRANCH  35  36
ENDBRANCH  34  35
ENDBRANCH  33  34
ENDBRANCH  32  33
ENDBRANCH  28  32
ENDBRANCH  24  28
ENDBRANCH  23  25
BRANCH  23  40
ATOM     40  CB  LEU A   2       6.261  -3.255  21.952  0.00  0.00    +0.034 C 
BRANCH  40  41
ATOM     41  CG  LEU A   2       5.649  -4.664  21.813  0.00  0.00    -0.015 C 
ATOM     42  CD2 LEU A   2       5.048  -5.167  23.127  0.00  0.00    +0.007 C 
ATOM     43  CD1 LEU A   2       6.712  -5.650  21.323  0.00  0.00    +0.007 C 
ENDBRANCH  40  41
ENDBRANCH  23  40
ENDBRANCH   1  23
TORSDOF 20
ENDMDL
MODEL 6
REMARK VINA RESULT:      -6.1      2.226      4.845
REMARK  Name = KLQS-mmff94.pdb
REMARK  22 active torsions:
REMARK  status: ('A' for Active; 'I' for Inactive)
REMARK    1  A    between atoms: _1  and  _2
REMARK    2  A    between atoms: _2  and  _3
REMARK    3  A    between atoms: _2  and  _5
REMARK    4  A    between atoms: _5  and  _6
REMARK    5  A    between atoms: _6  and  _7
REMARK    6  A    between atoms: _7  and  _8
REMARK    7  A    between atoms: _8  and  _9
REMARK    8  A    between atoms: _23  and  _24
REMARK    9  A    between atoms: _24  and  _25
REMARK   10  A    between atoms: _24  and  _27
REMARK   11  A    between atoms: _27  and  _28
REMARK   12  A    between atoms: _28  and  _29
REMARK   13  A    between atoms: _28  and  _30
REMARK   14  A    between atoms: _42  and  _43
REMARK   15  A    between atoms: _43  and  _44
REMARK   16  A    between atoms: _43  and  _46
REMARK   17  A    between atoms: _46  and  _47
REMARK   18  A    between atoms: _47  and  _48
REMARK   19  A    between atoms: _59  and  _60
REMARK   20  A    between atoms: _60  and  _61
REMARK   21  A    between atoms: _60  and  _63
REMARK   22  A    between atoms: _63  and  _64
REMARK                            x       y       z     vdW  Elec       q    Type
REMARK                         _______ _______ _______ _____ _____    ______ ____
ROOT
ATOM      1  C   LEU A   2       9.248  -2.356  24.452  0.00  0.00    +0.234 C 
ATOM      2  O   LEU A   2      10.149  -2.593  23.645  0.00  0.00    -0.274 OA
ATOM      3  N   GLN A   3       8.568  -3.359  25.099  0.00  0.00    -0.302 N 
ATOM      4  H   GLN A   3       7.849  -3.137  25.788  0.00  0.00    +0.150 HD
ENDROOT
BRANCH   3   5
ATOM      5  CA  GLN A   3       8.831  -4.779  24.868  0.00  0.00    +0.159 C 
BRANCH   5   6
ATOM      6  C   GLN A   3       7.865  -5.201  23.744  0.00  0.00    +0.234 C 
ATOM      7  N   SER A   4       6.535  -4.981  23.981  0.00  0.00    -0.302 N 
ATOM      8  H   SER A   4       6.214  -4.544  24.840  0.00  0.00    +0.150 HD
ATOM      9  O   GLN A   3       8.269  -5.690  22.689  0.00  0.00    -0.274 OA
BRANCH   7  10
ATOM     10  CA  SER A   4       5.509  -5.228  22.965  0.00  0.00    +0.161 C 
BRANCH  10  11
ATOM     11  C   SER A   4       5.118  -3.881  22.375  0.00  0.00    +0.247 C 
ATOM     12  O   SER A   4       5.562  -3.480  21.296  0.00  0.00    -0.299 OA
ENDBRANCH  10  11
BRANCH  10  13
ATOM     13  CB  SER A   4       4.271  -5.941  23.515  0.00  0.00    +0.185 C 
BRANCH  13  14
ATOM     14  OG  SER A   4       4.576  -7.285  23.878  0.00  0.00    -0.393 OA
ATOM     15  H   SER A   4       4.731  -7.776  23.051  0.00  0.00    +0.209 HD
ENDBRANCH  13  14
ENDBRANCH  10  13
ENDBRANCH   7  10
ENDBRANCH   5   6
BRANCH   5  16
ATOM     16  CB  GLN A   3       8.603  -5.589  26.155  0.00  0.00    +0.041 C 
BRANCH  16  17
ATOM     17  CG  GLN A   3       7.538  -4.983  27.070  0.00  0.00    +0.098 C 
BRANCH  17  18
ATOM     18  CD  GLN A   3       6.484  -6.019  27.417  0.00  0.00    +0.211 C 
ATOM     19  NE2 GLN A   3       6.524  -6.464  28.705  0.00  0.00    -0.329 N 
ATOM     20 HE21 GLN A   3       5.821  -7.117  29.024  0.00  0.00    +0.145 HD
ATOM     21 HE22 GLN A   3       7.070  -5.999  29.422  0.00  0.00    +0.145 HD
ATOM     22  OE1 GLN A   3       5.685  -6.486  26.604  0.00  0.00    -0.276 OA
ENDBRANCH  17  18
ENDBRANCH  16  17
ENDBRANCH   5  16
ENDBRANCH   3   5
BRANCH   1  23
ATOM     23  CA  LEU A   2       8.809  -0.920  24.832  0.00  0.00    +0.159 C 
BRANCH  23  25
ATOM     24  C   LYS A   1       8.964   1.114  23.429  0.00  0.00    +0.230 C 
ATOM     25  N   LEU A   2       8.566  -0.193  23.588  0.00  0.00    -0.303 N 
ATOM     26  H   LEU A   2       8.464  -0.766  22.757  0.00  0.00    +0.149 HD
ATOM     27  O   LYS A   1       9.346   1.821  24.359  0.00  0.00    -0.274 OA
BRANCH  24  28
ATOM     28  CA  LYS A   1       8.934   1.618  21.970  0.00  0.00    +0.138 C 
BRANCH  28  29
ATOM     29  N   LYS A   1      10.237   2.214  21.636  0.00  0.00    -0.320 NA
ATOM     30  H1  LYS A   1      10.100   3.196  21.388  0.00  0.00    +0.119 HD
ATOM     31  H2  LYS A   1      10.801   2.245  22.490  0.00  0.00    +0.119 HD
ENDBRANCH  28  29
BRANCH  28  32
ATOM     32  CB  LYS A   1       8.641   0.441  21.021  0.00  0.00    +0.028 C 
BRANCH  32  33
ATOM     33  CG  LYS A   1       7.330   0.650  20.261  0.00  0.00    +0.007 C 
BRANCH  33  34
ATOM     34  CD  LYS A   1       7.394   0.205  18.800  0.00  0.00    +0.051 C 
BRANCH  34  35
ATOM     35  CE  LYS A   1       5.998  -0.225  18.366  0.00  0.00    +0.127 C 
BRANCH  35  36
ATOM     36  NZ  LYS A   1       5.566  -1.425  19.109  0.00  0.00    +0.219 N 
ATOM     37  HZ1 LYS A   1       5.789  -2.290  18.604  0.00  0.00    +0.199 HD
ATOM     38  HZ2 LYS A   1       6.103  -1.455  19.994  0.00  0.00    +0.199 HD
ATOM     39  HZ3 LYS A   1       4.564  -1.416  19.329  0.00  0.00    +0.199 HD
ENDBRANCH  35  36
ENDBRANCH  34  35
ENDBRANCH  33  34
ENDBRANCH  32  33
ENDBRANCH  28  32
ENDBRANCH  24  28
ENDBRANCH  23  25
BRANCH  23  40
ATOM     40  CB  LEU A   2       7.552  -0.932  25.710  0.00  0.00    +0.034 C 
BRANCH  40  41
ATOM     41  CG  LEU A   2       6.239  -0.732  24.924  0.00  0.00    -0.015 C 
ATOM     42  CD2 LEU A   2       5.622   0.647  25.166  0.00  0.00    +0.007 C 
ATOM     43  CD1 LEU A   2       5.232  -1.820  25.304  0.00  0.00    +0.007 C 
ENDBRANCH  40  41
ENDBRANCH  23  40
ENDBRANCH   1  23
TORSDOF 20
ENDMDL
MODEL 7
REMARK VINA RESULT:      -6.0      2.420      6.756
REMARK  Name = KLQS-mmff94.pdb
REMARK  22 active torsions:
REMARK  status: ('A' for Active; 'I' for Inactive)
REMARK    1  A    between atoms: _1  and  _2
REMARK    2  A    between atoms: _2  and  _3
REMARK    3  A    between atoms: _2  and  _5
REMARK    4  A    between atoms: _5  and  _6
REMARK    5  A    between atoms: _6  and  _7
REMARK    6  A    between atoms: _7  and  _8
REMARK    7  A    between atoms: _8  and  _9
REMARK    8  A    between atoms: _23  and  _24
REMARK    9  A    between atoms: _24  and  _25
REMARK   10  A    between atoms: _24  and  _27
REMARK   11  A    between atoms: _27  and  _28
REMARK   12  A    between atoms: _28  and  _29
REMARK   13  A    between atoms: _28  and  _30
REMARK   14  A    between atoms: _42  and  _43
REMARK   15  A    between atoms: _43  and  _44
REMARK   16  A    between atoms: _43  and  _46
REMARK   17  A    between atoms: _46  and  _47
REMARK   18  A    between atoms: _47  and  _48
REMARK   19  A    between atoms: _59  and  _60
REMARK   20  A    between atoms: _60  and  _61
REMARK   21  A    between atoms: _60  and  _63
REMARK   22  A    between atoms: _63  and  _64
REMARK                            x       y       z     vdW  Elec       q    Type
REMARK                         _______ _______ _______ _____ _____    ______ ____
ROOT
ATOM      1  C   LEU A   2       8.552  -2.234  22.145  0.00  0.00    +0.234 C 
ATOM      2  O   LEU A   2       9.766  -2.102  22.319  0.00  0.00    -0.274 OA
ATOM      3  N   GLN A   3       7.807  -1.295  21.475  0.00  0.00    -0.302 N 
ATOM      4  H   GLN A   3       6.810  -1.442  21.315  0.00  0.00    +0.150 HD
ENDROOT
BRANCH   3   5
ATOM      5  CA  GLN A   3       8.375  -0.057  20.942  0.00  0.00    +0.159 C 
BRANCH   5   6
ATOM      6  C   GLN A   3       7.962   1.049  21.935  0.00  0.00    +0.234 C 
ATOM      7  N   SER A   4       6.698   0.954  22.448  0.00  0.00    -0.302 N 
ATOM      8  H   SER A   4       6.080   0.185  22.201  0.00  0.00    +0.150 HD
ATOM      9  O   GLN A   3       8.734   1.952  22.260  0.00  0.00    -0.274 OA
BRANCH   7  10
ATOM     10  CA  SER A   4       6.203   1.866  23.483  0.00  0.00    +0.161 C 
BRANCH  10  11
ATOM     11  C   SER A   4       5.826   1.021  24.691  0.00  0.00    +0.247 C 
ATOM     12  O   SER A   4       4.665   0.930  25.095  0.00  0.00    -0.299 OA
ENDBRANCH  10  11
BRANCH  10  13
ATOM     13  CB  SER A   4       5.004   2.703  23.031  0.00  0.00    +0.185 C 
BRANCH  13  14
ATOM     14  OG  SER A   4       4.955   2.797  21.609  0.00  0.00    -0.393 OA
ATOM     15  H   SER A   4       5.071   1.894  21.260  0.00  0.00    +0.209 HD
ENDBRANCH  13  14
ENDBRANCH  10  13
ENDBRANCH   7  10
ENDBRANCH   5   6
BRANCH   5  16
ATOM     16  CB  GLN A   3       7.843   0.217  19.525  0.00  0.00    +0.041 C 
BRANCH  16  17
ATOM     17  CG  GLN A   3       6.362  -0.124  19.358  0.00  0.00    +0.098 C 
BRANCH  17  18
ATOM     18  CD  GLN A   3       5.668   0.926  18.508  0.00  0.00    +0.211 C 
ATOM     19  NE2 GLN A   3       4.489   1.381  19.015  0.00  0.00    -0.329 N 
ATOM     20 HE21 GLN A   3       3.993   2.118  18.530  0.00  0.00    +0.145 HD
ATOM     21 HE22 GLN A   3       4.201   1.193  19.969  0.00  0.00    +0.145 HD
ATOM     22  OE1 GLN A   3       6.082   1.305  17.411  0.00  0.00    -0.276 OA
ENDBRANCH  17  18
ENDBRANCH  16  17
ENDBRANCH   5  16
ENDBRANCH   3   5
BRANCH   1  23
ATOM     23  CA  LEU A   2       7.757  -3.468  22.638  0.00  0.00    +0.159 C 
BRANCH  23  25
ATOM     24  C   LYS A   1       8.502  -3.950  24.949  0.00  0.00    +0.230 C 
ATOM     25  N   LEU A   2       7.616  -3.348  24.087  0.00  0.00    -0.303 N 
ATOM     26  H   LEU A   2       7.114  -2.528  24.412  0.00  0.00    +0.149 HD
ATOM     27  O   LYS A   1       9.328  -4.788  24.591  0.00  0.00    -0.274 OA
BRANCH  24  28
ATOM     28  CA  LYS A   1       8.410  -3.457  26.409  0.00  0.00    +0.138 C 
BRANCH  28  29
ATOM     29  N   LYS A   1       8.582  -1.997  26.440  0.00  0.00    -0.320 NA
ATOM     30  H1  LYS A   1       7.750  -1.572  26.855  0.00  0.00    +0.119 HD
ATOM     31  H2  LYS A   1       9.334  -1.779  27.101  0.00  0.00    +0.119 HD
ENDBRANCH  28  29
BRANCH  28  32
ATOM     32  CB  LYS A   1       7.036  -3.832  26.996  0.00  0.00    +0.028 C 
BRANCH  32  33
ATOM     33  CG  LYS A   1       6.929  -5.338  27.245  0.00  0.00    +0.007 C 
BRANCH  33  34
ATOM     34  CD  LYS A   1       5.853  -6.021  26.402  0.00  0.00    +0.051 C 
BRANCH  34  35
ATOM     35  CE  LYS A   1       4.847  -6.674  27.342  0.00  0.00    +0.127 C 
BRANCH  35  36
ATOM     36  NZ  LYS A   1       5.537  -7.460  28.382  0.00  0.00    +0.219 N 
ATOM     37  HZ1 LYS A   1       6.473  -7.755  28.083  0.00  0.00    +0.199 HD
ATOM     38  HZ2 LYS A   1       5.672  -6.843  29.203  0.00  0.00    +0.199 HD
ATOM     39  HZ3 LYS A   1       5.004  -8.288  28.674  0.00  0.00    +0.199 HD
ENDBRANCH  35  36
ENDBRANCH  34  35
ENDBRANCH  33  34
ENDBRANCH  32  33
ENDBRANCH  28  32
ENDBRANCH  24  28
ENDBRANCH  23  25
BRANCH  23  40
ATOM     40  CB  LEU A   2       6.383  -3.556  21.962  0.00  0.00    +0.034 C 
BRANCH  40  41
ATOM     41  CG  LEU A   2       5.884  -5.001  21.750  0.00  0.00    -0.015 C 
ATOM     42  CD2 LEU A   2       4.842  -5.413  22.792  0.00  0.00    +0.007 C 
ATOM     43  CD1 LEU A   2       7.066  -5.972  21.791  0.00  0.00    +0.007 C 
ENDBRANCH  40  41
ENDBRANCH  23  40
ENDBRANCH   1  23
TORSDOF 20
ENDMDL
MODEL 8
REMARK VINA RESULT:      -6.0      2.407      6.384
REMARK  Name = KLQS-mmff94.pdb
REMARK  22 active torsions:
REMARK  status: ('A' for Active; 'I' for Inactive)
REMARK    1  A    between atoms: _1  and  _2
REMARK    2  A    between atoms: _2  and  _3
REMARK    3  A    between atoms: _2  and  _5
REMARK    4  A    between atoms: _5  and  _6
REMARK    5  A    between atoms: _6  and  _7
REMARK    6  A    between atoms: _7  and  _8
REMARK    7  A    between atoms: _8  and  _9
REMARK    8  A    between atoms: _23  and  _24
REMARK    9  A    between atoms: _24  and  _25
REMARK   10  A    between atoms: _24  and  _27
REMARK   11  A    between atoms: _27  and  _28
REMARK   12  A    between atoms: _28  and  _29
REMARK   13  A    between atoms: _28  and  _30
REMARK   14  A    between atoms: _42  and  _43
REMARK   15  A    between atoms: _43  and  _44
REMARK   16  A    between atoms: _43  and  _46
REMARK   17  A    between atoms: _46  and  _47
REMARK   18  A    between atoms: _47  and  _48
REMARK   19  A    between atoms: _59  and  _60
REMARK   20  A    between atoms: _60  and  _61
REMARK   21  A    between atoms: _60  and  _63
REMARK   22  A    between atoms: _63  and  _64
REMARK                            x       y       z     vdW  Elec       q    Type
REMARK                         _______ _______ _______ _____ _____    ______ ____
ROOT
ATOM      1  C   LEU A   2       6.272  -3.086  21.753  0.00  0.00    +0.234 C 
ATOM      2  O   LEU A   2       5.686  -2.904  20.683  0.00  0.00    -0.274 OA
ATOM      3  N   GLN A   3       7.368  -2.344  22.118  0.00  0.00    -0.302 N 
ATOM      4  H   GLN A   3       7.815  -2.491  23.024  0.00  0.00    +0.150 HD
ENDROOT
BRANCH   3   5
ATOM      5  CA  GLN A   3       7.950  -1.307  21.267  0.00  0.00    +0.159 C 
BRANCH   5   6
ATOM      6  C   GLN A   3       9.258  -0.885  21.965  0.00  0.00    +0.234 C 
ATOM      7  N   SER A   4       9.224   0.307  22.636  0.00  0.00    -0.302 N 
ATOM      8  H   SER A   4       8.376   0.865  22.684  0.00  0.00    +0.150 HD
ATOM      9  O   GLN A   3      10.268  -1.589  21.934  0.00  0.00    -0.274 OA
BRANCH   7  10
ATOM     10  CA  SER A   4      10.354   0.787  23.436  0.00  0.00    +0.161 C 
BRANCH  10  11
ATOM     11  C   SER A   4      10.049   0.466  24.891  0.00  0.00    +0.247 C 
ATOM     12  O   SER A   4       9.533  -0.599  25.237  0.00  0.00    -0.299 OA
ENDBRANCH  10  11
BRANCH  10  13
ATOM     13  CB  SER A   4      10.621   2.285  23.272  0.00  0.00    +0.185 C 
BRANCH  13  14
ATOM     14  OG  SER A   4      10.595   2.660  21.896  0.00  0.00    -0.393 OA
ATOM     15  H   SER A   4      10.767   3.618  21.859  0.00  0.00    +0.209 HD
ENDBRANCH  13  14
ENDBRANCH  10  13
ENDBRANCH   7  10
ENDBRANCH   5   6
BRANCH   5  16
ATOM     16  CB  GLN A   3       6.977  -0.126  21.111  0.00  0.00    +0.041 C 
BRANCH  16  17
ATOM     17  CG  GLN A   3       7.003   0.499  19.716  0.00  0.00    +0.098 C 
BRANCH  17  18
ATOM     18  CD  GLN A   3       5.700   0.225  18.986  0.00  0.00    +0.211 C 
ATOM     19  NE2 GLN A   3       5.681  -0.935  18.271  0.00  0.00    -0.329 N 
ATOM     20 HE21 GLN A   3       4.829  -1.210  17.799  0.00  0.00    +0.145 HD
ATOM     21 HE22 GLN A   3       6.391  -1.651  18.381  0.00  0.00    +0.145 HD
ATOM     22  OE1 GLN A   3       4.745   1.003  18.970  0.00  0.00    -0.276 OA
ENDBRANCH  17  18
ENDBRANCH  16  17
ENDBRANCH   5  16
ENDBRANCH   3   5
BRANCH   1  23
ATOM     23  CA  LEU A   2       5.821  -4.141  22.793  0.00  0.00    +0.159 C 
BRANCH  23  25
ATOM     24  C   LYS A   1       7.921  -4.941  23.833  0.00  0.00    +0.230 C 
ATOM     25  N   LEU A   2       6.805  -4.139  23.874  0.00  0.00    -0.303 N 
ATOM     26  H   LEU A   2       6.846  -3.289  24.426  0.00  0.00    +0.149 HD
ATOM     27  O   LYS A   1       8.068  -5.852  23.021  0.00  0.00    -0.274 OA
BRANCH  24  28
ATOM     28  CA  LYS A   1       9.007  -4.579  24.869  0.00  0.00    +0.138 C 
BRANCH  28  29
ATOM     29  N   LYS A   1       9.822  -3.471  24.350  0.00  0.00    -0.320 NA
ATOM     30  H1  LYS A   1       9.513  -2.598  24.784  0.00  0.00    +0.119 HD
ATOM     31  H2  LYS A   1      10.781  -3.595  24.688  0.00  0.00    +0.119 HD
ENDBRANCH  28  29
BRANCH  28  32
ATOM     32  CB  LYS A   1       8.340  -4.161  26.193  0.00  0.00    +0.028 C 
BRANCH  32  33
ATOM     33  CG  LYS A   1       7.853  -5.378  26.981  0.00  0.00    +0.007 C 
BRANCH  33  34
ATOM     34  CD  LYS A   1       6.353  -5.354  27.275  0.00  0.00    +0.051 C 
BRANCH  34  35
ATOM     35  CE  LYS A   1       6.108  -6.085  28.589  0.00  0.00    +0.127 C 
BRANCH  35  36
ATOM     36  NZ  LYS A   1       5.513  -7.413  28.347  0.00  0.00    +0.219 N 
ATOM     37  HZ1 LYS A   1       6.154  -8.173  28.602  0.00  0.00    +0.199 HD
ATOM     38  HZ2 LYS A   1       4.688  -7.504  28.966  0.00  0.00    +0.199 HD
ATOM     39  HZ3 LYS A   1       5.213  -7.542  27.373  0.00  0.00    +0.199 HD
ENDBRANCH  35  36
ENDBRANCH  34  35
ENDBRANCH  33  34
ENDBRANCH  32  33
ENDBRANCH  28  32
ENDBRANCH  24  28
ENDBRANCH  23  25
BRANCH  23  40
ATOM     40  CB  LEU A   2       4.419  -3.834  23.332  0.00  0.00    +0.034 C 
BRANCH  40  41
ATOM     41  CG  LEU A   2       3.814  -4.972  24.182  0.00  0.00    -0.015 C 
ATOM     42  CD2 LEU A   2       2.809  -5.813  23.392  0.00  0.00    +0.007 C 
ATOM     43  CD1 LEU A   2       3.135  -4.391  25.424  0.00  0.00    +0.007 C 
ENDBRANCH  40  41
ENDBRANCH  23  40
ENDBRANCH   1  23
TORSDOF 20
ENDMDL
MODEL 9
REMARK VINA RESULT:      -6.0      2.028      5.981
REMARK  Name = KLQS-mmff94.pdb
REMARK  22 active torsions:
REMARK  status: ('A' for Active; 'I' for Inactive)
REMARK    1  A    between atoms: _1  and  _2
REMARK    2  A    between atoms: _2  and  _3
REMARK    3  A    between atoms: _2  and  _5
REMARK    4  A    between atoms: _5  and  _6
REMARK    5  A    between atoms: _6  and  _7
REMARK    6  A    between atoms: _7  and  _8
REMARK    7  A    between atoms: _8  and  _9
REMARK    8  A    between atoms: _23  and  _24
REMARK    9  A    between atoms: _24  and  _25
REMARK   10  A    between atoms: _24  and  _27
REMARK   11  A    between atoms: _27  and  _28
REMARK   12  A    between atoms: _28  and  _29
REMARK   13  A    between atoms: _28  and  _30
REMARK   14  A    between atoms: _42  and  _43
REMARK   15  A    between atoms: _43  and  _44
REMARK   16  A    between atoms: _43  and  _46
REMARK   17  A    between atoms: _46  and  _47
REMARK   18  A    between atoms: _47  and  _48
REMARK   19  A    between atoms: _59  and  _60
REMARK   20  A    between atoms: _60  and  _61
REMARK   21  A    between atoms: _60  and  _63
REMARK   22  A    between atoms: _63  and  _64
REMARK                            x       y       z     vdW  Elec       q    Type
REMARK                         _______ _______ _______ _____ _____    ______ ____
ROOT
ATOM      1  C   LEU A   2       8.463  -2.193  22.104  0.00  0.00    +0.234 C 
ATOM      2  O   LEU A   2       9.693  -2.113  22.143  0.00  0.00    -0.274 OA
ATOM      3  N   GLN A   3       7.680  -1.161  21.651  0.00  0.00    -0.302 N 
ATOM      4  H   GLN A   3       6.666  -1.264  21.596  0.00  0.00    +0.150 HD
ENDROOT
BRANCH   3   5
ATOM      5  CA  GLN A   3       8.227   0.121  21.208  0.00  0.00    +0.159 C 
BRANCH   5   6
ATOM      6  C   GLN A   3       7.729   1.160  22.232  0.00  0.00    +0.234 C 
ATOM      7  N   SER A   4       8.404   2.350  22.258  0.00  0.00    -0.302 N 
ATOM      8  H   SER A   4       9.174   2.538  21.621  0.00  0.00    +0.150 HD
ATOM      9  O   GLN A   3       6.769   0.937  22.970  0.00  0.00    -0.274 OA
BRANCH   7  10
ATOM     10  CA  SER A   4       7.979   3.472  23.099  0.00  0.00    +0.161 C 
BRANCH  10  11
ATOM     11  C   SER A   4       7.171   4.417  22.222  0.00  0.00    +0.247 C 
ATOM     12  O   SER A   4       6.931   5.580  22.553  0.00  0.00    -0.299 OA
ENDBRANCH  10  11
BRANCH  10  13
ATOM     13  CB  SER A   4       9.147   4.222  23.744  0.00  0.00    +0.185 C 
BRANCH  13  14
ATOM     14  OG  SER A   4      10.397   3.700  23.299  0.00  0.00    -0.393 OA
ATOM     15  H   SER A   4      10.882   4.437  22.885  0.00  0.00    +0.209 HD
ENDBRANCH  13  14
ENDBRANCH  10  13
ENDBRANCH   7  10
ENDBRANCH   5   6
BRANCH   5  16
ATOM     16  CB  GLN A   3       7.754   0.449  19.782  0.00  0.00    +0.041 C 
BRANCH  16  17
ATOM     17  CG  GLN A   3       6.234   0.405  19.624  0.00  0.00    +0.098 C 
BRANCH  17  18
ATOM     18  CD  GLN A   3       5.851   0.437  18.155  0.00  0.00    +0.211 C 
ATOM     19  NE2 GLN A   3       5.482   1.663  17.690  0.00  0.00    -0.329 N 
ATOM     20 HE21 GLN A   3       5.262   1.774  16.708  0.00  0.00    +0.145 HD
ATOM     21 HE22 GLN A   3       5.645   2.515  18.216  0.00  0.00    +0.145 HD
ATOM     22  OE1 GLN A   3       5.804  -0.561  17.435  0.00  0.00    -0.276 OA
ENDBRANCH  17  18
ENDBRANCH  16  17
ENDBRANCH   5  16
ENDBRANCH   3   5
BRANCH   1  23
ATOM     23  CA  LEU A   2       7.686  -3.461  22.535  0.00  0.00    +0.159 C 
BRANCH  23  25
ATOM     24  C   LYS A   1       8.345  -4.214  24.800  0.00  0.00    +0.230 C 
ATOM     25  N   LEU A   2       7.561  -3.425  23.991  0.00  0.00    -0.303 N 
ATOM     26  H   LEU A   2       7.190  -2.564  24.378  0.00  0.00    +0.149 HD
ATOM     27  O   LYS A   1       9.035  -5.140  24.377  0.00  0.00    -0.274 OA
BRANCH  24  28
ATOM     28  CA  LYS A   1       8.325  -3.818  26.292  0.00  0.00    +0.138 C 
BRANCH  28  29
ATOM     29  N   LYS A   1       9.067  -4.822  27.071  0.00  0.00    -0.320 NA
ATOM     30  H1  LYS A   1       8.926  -4.641  28.067  0.00  0.00    +0.119 HD
ATOM     31  H2  LYS A   1       8.628  -5.734  26.914  0.00  0.00    +0.119 HD
ENDBRANCH  28  29
BRANCH  28  32
ATOM     32  CB  LYS A   1       8.978  -2.435  26.469  0.00  0.00    +0.028 C 
BRANCH  32  33
ATOM     33  CG  LYS A   1       7.925  -1.343  26.671  0.00  0.00    +0.007 C 
BRANCH  33  34
ATOM     34  CD  LYS A   1       8.275  -0.024  25.983  0.00  0.00    +0.051 C 
BRANCH  34  35
ATOM     35  CE  LYS A   1       9.509  -0.245  25.116  0.00  0.00    +0.127 C 
BRANCH  35  36
ATOM     36  NZ  LYS A   1      10.292   1.000  24.993  0.00  0.00    +0.219 N 
ATOM     37  HZ1 LYS A   1      11.098   1.012  25.628  0.00  0.00    +0.199 HD
ATOM     38  HZ2 LYS A   1      10.675   1.035  24.032  0.00  0.00    +0.199 HD
ATOM     39  HZ3 LYS A   1       9.727   1.842  25.156  0.00  0.00    +0.199 HD
ENDBRANCH  35  36
ENDBRANCH  34  35
ENDBRANCH  33  34
ENDBRANCH  32  33
ENDBRANCH  28  32
ENDBRANCH  24  28
ENDBRANCH  23  25
BRANCH  23  40
ATOM     40  CB  LEU A   2       6.304  -3.525  21.872  0.00  0.00    +0.034 C 
BRANCH  40  41
ATOM     41  CG  LEU A   2       5.778  -4.960  21.663  0.00  0.00    -0.015 C 
ATOM     42  CD2 LEU A   2       4.848  -5.407  22.793  0.00  0.00    +0.007 C 
ATOM     43  CD1 LEU A   2       6.952  -5.935  21.548  0.00  0.00    +0.007 C 
ENDBRANCH  40  41
ENDBRANCH  23  40
ENDBRANCH   1  23
TORSDOF 20
ENDMDL
MODEL 10
REMARK VINA RESULT:      -6.0      2.637      5.229
REMARK  Name = KLQS-mmff94.pdb
REMARK  22 active torsions:
REMARK  status: ('A' for Active; 'I' for Inactive)
REMARK    1  A    between atoms: _1  and  _2
REMARK    2  A    between atoms: _2  and  _3
REMARK    3  A    between atoms: _2  and  _5
REMARK    4  A    between atoms: _5  and  _6
REMARK    5  A    between atoms: _6  and  _7
REMARK    6  A    between atoms: _7  and  _8
REMARK    7  A    between atoms: _8  and  _9
REMARK    8  A    between atoms: _23  and  _24
REMARK    9  A    between atoms: _24  and  _25
REMARK   10  A    between atoms: _24  and  _27
REMARK   11  A    between atoms: _27  and  _28
REMARK   12  A    between atoms: _28  and  _29
REMARK   13  A    between atoms: _28  and  _30
REMARK   14  A    between atoms: _42  and  _43
REMARK   15  A    between atoms: _43  and  _44
REMARK   16  A    between atoms: _43  and  _46
REMARK   17  A    between atoms: _46  and  _47
REMARK   18  A    between atoms: _47  and  _48
REMARK   19  A    between atoms: _59  and  _60
REMARK   20  A    between atoms: _60  and  _61
REMARK   21  A    between atoms: _60  and  _63
REMARK   22  A    between atoms: _63  and  _64
REMARK                            x       y       z     vdW  Elec       q    Type
REMARK                         _______ _______ _______ _____ _____    ______ ____
ROOT
ATOM      1  C   LEU A   2       9.279  -1.890  24.138  0.00  0.00    +0.234 C 
ATOM      2  O   LEU A   2      10.146  -2.711  23.830  0.00  0.00    -0.274 OA
ATOM      3  N   GLN A   3       8.041  -1.881  23.544  0.00  0.00    -0.302 N 
ATOM      4  H   GLN A   3       7.329  -1.212  23.839  0.00  0.00    +0.150 HD
ENDROOT
BRANCH   3   5
ATOM      5  CA  GLN A   3       7.657  -2.814  22.485  0.00  0.00    +0.159 C 
BRANCH   5   6
ATOM      6  C   GLN A   3       6.793  -1.995  21.505  0.00  0.00    +0.234 C 
ATOM      7  N   SER A   4       7.257  -0.746  21.195  0.00  0.00    -0.302 N 
ATOM      8  H   SER A   4       8.131  -0.394  21.576  0.00  0.00    +0.150 HD
ATOM      9  O   GLN A   3       5.758  -2.448  21.017  0.00  0.00    -0.274 OA
BRANCH   7  10
ATOM     10  CA  SER A   4       6.604   0.105  20.196  0.00  0.00    +0.161 C 
BRANCH  10  11
ATOM     11  C   SER A   4       7.484   0.107  18.955  0.00  0.00    +0.247 C 
ATOM     12  O   SER A   4       7.151   0.675  17.912  0.00  0.00    -0.299 OA
ENDBRANCH  10  11
BRANCH  10  13
ATOM     13  CB  SER A   4       6.373   1.539  20.679  0.00  0.00    +0.185 C 
BRANCH  13  14
ATOM     14  OG  SER A   4       5.198   2.092  20.089  0.00  0.00    -0.393 OA
ATOM     15  H   SER A   4       4.435   1.677  20.531  0.00  0.00    +0.209 HD
ENDBRANCH  13  14
ENDBRANCH  10  13
ENDBRANCH   7  10
ENDBRANCH   5   6
BRANCH   5  16
ATOM     16  CB  GLN A   3       6.886  -4.009  23.069  0.00  0.00    +0.041 C 
BRANCH  16  17
ATOM     17  CG  GLN A   3       7.205  -5.333  22.375  0.00  0.00    +0.098 C 
BRANCH  17  18
ATOM     18  CD  GLN A   3       6.025  -5.793  21.538  0.00  0.00    +0.211 C 
ATOM     19  NE2 GLN A   3       5.018  -6.377  22.246  0.00  0.00    -0.329 N 
ATOM     20 HE21 GLN A   3       4.175  -6.663  21.763  0.00  0.00    +0.145 HD
ATOM     21 HE22 GLN A   3       4.965  -6.324  23.258  0.00  0.00    +0.145 HD
ATOM     22  OE1 GLN A   3       5.982  -5.717  20.309  0.00  0.00    -0.276 OA
ENDBRANCH  17  18
ENDBRANCH  16  17
ENDBRANCH   5  16
ENDBRANCH   3   5
BRANCH   1  23
ATOM     23  CA  LEU A   2       9.487  -0.812  25.230  0.00  0.00    +0.159 C 
BRANCH  23  25
ATOM     24  C   LYS A   1      10.335   1.215  24.088  0.00  0.00    +0.230 C 
ATOM     25  N   LEU A   2       9.284   0.492  24.603  0.00  0.00    -0.303 N 
ATOM     26  H   LEU A   2       8.359   0.655  24.220  0.00  0.00    +0.149 HD
ATOM     27  O   LYS A   1      11.514   0.936  24.300  0.00  0.00    -0.274 OA
BRANCH  24  28
ATOM     28  CA  LYS A   1       9.918   2.391  23.179  0.00  0.00    +0.138 C 
BRANCH  28  29
ATOM     29  N   LYS A   1       9.885   1.935  21.781  0.00  0.00    -0.320 NA
ATOM     30  H1  LYS A   1      10.504   1.128  21.679  0.00  0.00    +0.119 HD
ATOM     31  H2  LYS A   1       8.950   1.563  21.589  0.00  0.00    +0.119 HD
ENDBRANCH  28  29
BRANCH  28  32
ATOM     32  CB  LYS A   1       8.525   2.898  23.595  0.00  0.00    +0.028 C 
BRANCH  32  33
ATOM     33  CG  LYS A   1       8.392   4.406  23.376  0.00  0.00    +0.007 C 
BRANCH  33  34
ATOM     34  CD  LYS A   1       7.199   4.793  22.501  0.00  0.00    +0.051 C 
BRANCH  34  35
ATOM     35  CE  LYS A   1       5.943   4.168  23.096  0.00  0.00    +0.127 C 
BRANCH  35  36
ATOM     36  NZ  LYS A   1       4.781   4.392  22.215  0.00  0.00    +0.219 N 
ATOM     37  HZ1 LYS A   1       4.542   5.387  22.139  0.00  0.00    +0.199 HD
ATOM     38  HZ2 LYS A   1       5.045   4.081  21.263  0.00  0.00    +0.199 HD
ATOM     39  HZ3 LYS A   1       3.949   3.871  22.515  0.00  0.00    +0.199 HD
ENDBRANCH  35  36
ENDBRANCH  34  35
ENDBRANCH  33  34
ENDBRANCH  32  33
ENDBRANCH  28  32
ENDBRANCH  24  28
ENDBRANCH  23  25
BRANCH  23  40
ATOM     40  CB  LEU A   2       8.519  -1.008  26.403  0.00  0.00    +0.034 C 
BRANCH  40  41
ATOM     41  CG  LEU A   2       7.430   0.081  26.502  0.00  0.00    -0.015 C 
ATOM     42  CD2 LEU A   2       7.288   0.632  27.922  0.00  0.00    +0.007 C 
ATOM     43  CD1 LEU A   2       6.086  -0.481  26.031  0.00  0.00    +0.007 C 
ENDBRANCH  40  41
ENDBRANCH  23  40
ENDBRANCH   1  23
TORSDOF 20
ENDMDL
MODEL 11
REMARK VINA RESULT:      -6.0      2.232      5.582
REMARK  Name = KLQS-mmff94.pdb
REMARK  22 active torsions:
REMARK  status: ('A' for Active; 'I' for Inactive)
REMARK    1  A    between atoms: _1  and  _2
REMARK    2  A    between atoms: _2  and  _3
REMARK    3  A    between atoms: _2  and  _5
REMARK    4  A    between atoms: _5  and  _6
REMARK    5  A    between atoms: _6  and  _7
REMARK    6  A    between atoms: _7  and  _8
REMARK    7  A    between atoms: _8  and  _9
REMARK    8  A    between atoms: _23  and  _24
REMARK    9  A    between atoms: _24  and  _25
REMARK   10  A    between atoms: _24  and  _27
REMARK   11  A    between atoms: _27  and  _28
REMARK   12  A    between atoms: _28  and  _29
REMARK   13  A    between atoms: _28  and  _30
REMARK   14  A    between atoms: _42  and  _43
REMARK   15  A    between atoms: _43  and  _44
REMARK   16  A    between atoms: _43  and  _46
REMARK   17  A    between atoms: _46  and  _47
REMARK   18  A    between atoms: _47  and  _48
REMARK   19  A    between atoms: _59  and  _60
REMARK   20  A    between atoms: _60  and  _61
REMARK   21  A    between atoms: _60  and  _63
REMARK   22  A    between atoms: _63  and  _64
REMARK                            x       y       z     vdW  Elec       q    Type
REMARK                         _______ _______ _______ _____ _____    ______ ____
ROOT
ATOM      1  C   LEU A   2       6.403  -2.333  21.628  0.00  0.00    +0.234 C 
ATOM      2  O   LEU A   2       5.726  -2.728  20.677  0.00  0.00    -0.274 OA
ATOM      3  N   GLN A   3       6.836  -3.183  22.617  0.00  0.00    -0.302 N 
ATOM      4  H   GLN A   3       7.424  -2.838  23.376  0.00  0.00    +0.150 HD
ENDROOT
BRANCH   3   5
ATOM      5  CA  GLN A   3       6.510  -4.608  22.643  0.00  0.00    +0.159 C 
BRANCH   5   6
ATOM      6  C   GLN A   3       5.218  -4.722  23.475  0.00  0.00    +0.234 C 
ATOM      7  N   SER A   4       5.384  -4.919  24.819  0.00  0.00    -0.302 N 
ATOM      8  H   SER A   4       6.308  -4.966  25.239  0.00  0.00    +0.150 HD
ATOM      9  O   GLN A   3       4.103  -4.621  22.962  0.00  0.00    -0.274 OA
BRANCH   7  10
ATOM     10  CA  SER A   4       4.255  -4.938  25.752  0.00  0.00    +0.161 C 
BRANCH  10  11
ATOM     11  C   SER A   4       4.498  -3.845  26.782  0.00  0.00    +0.247 C 
ATOM     12  O   SER A   4       5.590  -3.688  27.332  0.00  0.00    -0.299 OA
ENDBRANCH  10  11
BRANCH  10  13
ATOM     13  CB  SER A   4       4.067  -6.287  26.451  0.00  0.00    +0.185 C 
BRANCH  13  14
ATOM     14  OG  SER A   4       5.319  -6.817  26.879  0.00  0.00    -0.393 OA
ATOM     15  H   SER A   4       5.652  -6.231  27.583  0.00  0.00    +0.209 HD
ENDBRANCH  13  14
ENDBRANCH  10  13
ENDBRANCH   7  10
ENDBRANCH   5   6
BRANCH   5  16
ATOM     16  CB  GLN A   3       7.663  -5.417  23.261  0.00  0.00    +0.041 C 
BRANCH  16  17
ATOM     17  CG  GLN A   3       8.569  -4.583  24.168  0.00  0.00    +0.098 C 
BRANCH  17  18
ATOM     18  CD  GLN A   3       8.858  -5.327  25.460  0.00  0.00    +0.211 C 
ATOM     19  NE2 GLN A   3      10.180  -5.539  25.712  0.00  0.00    -0.329 N 
ATOM     20 HE21 GLN A   3      10.452  -5.984  26.579  0.00  0.00    +0.145 HD
ATOM     21 HE22 GLN A   3      10.913  -5.066  25.194  0.00  0.00    +0.145 HD
ATOM     22  OE1 GLN A   3       7.984  -5.772  26.206  0.00  0.00    -0.276 OA
ENDBRANCH  17  18
ENDBRANCH  16  17
ENDBRANCH   5  16
ENDBRANCH   3   5
BRANCH   1  23
ATOM     23  CA  LEU A   2       6.850  -0.860  21.793  0.00  0.00    +0.159 C 
BRANCH  23  25
ATOM     24  C   LYS A   1       7.169  -0.045  24.108  0.00  0.00    +0.230 C 
ATOM     25  N   LEU A   2       7.620  -0.770  23.032  0.00  0.00    -0.303 N 
ATOM     26  H   LEU A   2       8.260  -1.539  23.207  0.00  0.00    +0.149 HD
ATOM     27  O   LYS A   1       6.223   0.739  24.046  0.00  0.00    -0.274 OA
BRANCH  24  28
ATOM     28  CA  LYS A   1       7.921  -0.323  25.428  0.00  0.00    +0.138 C 
BRANCH  28  29
ATOM     29  N   LYS A   1       7.225  -1.386  26.168  0.00  0.00    -0.320 NA
ATOM     30  H1  LYS A   1       6.218  -1.211  26.135  0.00  0.00    +0.119 HD
ATOM     31  H2  LYS A   1       7.347  -2.264  25.655  0.00  0.00    +0.119 HD
ENDBRANCH  28  29
BRANCH  28  32
ATOM     32  CB  LYS A   1       9.364  -0.762  25.118  0.00  0.00    +0.028 C 
BRANCH  32  33
ATOM     33  CG  LYS A   1      10.307   0.440  25.035  0.00  0.00    +0.007 C 
BRANCH  33  34
ATOM     34  CD  LYS A   1      10.777   0.749  23.613  0.00  0.00    +0.051 C 
BRANCH  34  35
ATOM     35  CE  LYS A   1      10.194   2.093  23.195  0.00  0.00    +0.127 C 
BRANCH  35  36
ATOM     36  NZ  LYS A   1       9.931   2.119  21.743  0.00  0.00    +0.219 N 
ATOM     37  HZ1 LYS A   1       8.949   1.916  21.527  0.00  0.00    +0.199 HD
ATOM     38  HZ2 LYS A   1      10.112   3.082  21.410  0.00  0.00    +0.199 HD
ATOM     39  HZ3 LYS A   1      10.529   1.469  21.219  0.00  0.00    +0.199 HD
ENDBRANCH  35  36
ENDBRANCH  34  35
ENDBRANCH  33  34
ENDBRANCH  32  33
ENDBRANCH  28  32
ENDBRANCH  24  28
ENDBRANCH  23  25
BRANCH  23  40
ATOM     40  CB  LEU A   2       7.689  -0.391  20.596  0.00  0.00    +0.034 C 
BRANCH  40  41
ATOM     41  CG  LEU A   2       7.023   0.728  19.768  0.00  0.00    -0.015 C 
ATOM     42  CD2 LEU A   2       6.210   1.688  20.639  0.00  0.00    +0.007 C 
ATOM     43  CD1 LEU A   2       6.118   0.116  18.696  0.00  0.00    +0.007 C 
ENDBRANCH  40  41
ENDBRANCH  23  40
ENDBRANCH   1  23
TORSDOF 20
ENDMDL
MODEL 12
REMARK VINA RESULT:      -6.0      2.150      6.328
REMARK  Name = KLQS-mmff94.pdb
REMARK  22 active torsions:
REMARK  status: ('A' for Active; 'I' for Inactive)
REMARK    1  A    between atoms: _1  and  _2
REMARK    2  A    between atoms: _2  and  _3
REMARK    3  A    between atoms: _2  and  _5
REMARK    4  A    between atoms: _5  and  _6
REMARK    5  A    between atoms: _6  and  _7
REMARK    6  A    between atoms: _7  and  _8
REMARK    7  A    between atoms: _8  and  _9
REMARK    8  A    between atoms: _23  and  _24
REMARK    9  A    between atoms: _24  and  _25
REMARK   10  A    between atoms: _24  and  _27
REMARK   11  A    between atoms: _27  and  _28
REMARK   12  A    between atoms: _28  and  _29
REMARK   13  A    between atoms: _28  and  _30
REMARK   14  A    between atoms: _42  and  _43
REMARK   15  A    between atoms: _43  and  _44
REMARK   16  A    between atoms: _43  and  _46
REMARK   17  A    between atoms: _46  and  _47
REMARK   18  A    between atoms: _47  and  _48
REMARK   19  A    between atoms: _59  and  _60
REMARK   20  A    between atoms: _60  and  _61
REMARK   21  A    between atoms: _60  and  _63
REMARK   22  A    between atoms: _63  and  _64
REMARK                            x       y       z     vdW  Elec       q    Type
REMARK                         _______ _______ _______ _____ _____    ______ ____
ROOT
ATOM      1  C   LEU A   2       5.845  -3.328  23.204  0.00  0.00    +0.234 C 
ATOM      2  O   LEU A   2       5.128  -2.537  23.821  0.00  0.00    -0.274 OA
ATOM      3  N   GLN A   3       6.766  -2.906  22.278  0.00  0.00    -0.302 N 
ATOM      4  H   GLN A   3       7.371  -3.577  21.804  0.00  0.00    +0.150 HD
ENDROOT
BRANCH   3   5
ATOM      5  CA  GLN A   3       6.954  -1.499  21.924  0.00  0.00    +0.159 C 
BRANCH   5   6
ATOM      6  C   GLN A   3       6.095  -1.270  20.665  0.00  0.00    +0.234 C 
ATOM      7  N   SER A   4       5.945   0.031  20.269  0.00  0.00    -0.302 N 
ATOM      8  H   SER A   4       6.394   0.793  20.768  0.00  0.00    +0.150 HD
ATOM      9  O   GLN A   3       5.590  -2.205  20.043  0.00  0.00    -0.274 OA
BRANCH   7  10
ATOM     10  CA  SER A   4       5.249   0.396  19.032  0.00  0.00    +0.161 C 
BRANCH  10  11
ATOM     11  C   SER A   4       6.300   0.529  17.940  0.00  0.00    +0.247 C 
ATOM     12  O   SER A   4       7.508   0.438  18.174  0.00  0.00    -0.299 OA
ENDBRANCH  10  11
BRANCH  10  13
ATOM     13  CB  SER A   4       4.445   1.694  19.149  0.00  0.00    +0.185 C 
BRANCH  13  14
ATOM     14  OG  SER A   4       4.752   2.375  20.363  0.00  0.00    -0.393 OA
ATOM     15  H   SER A   4       3.981   2.930  20.581  0.00  0.00    +0.209 HD
ENDBRANCH  13  14
ENDBRANCH  10  13
ENDBRANCH   7  10
ENDBRANCH   5   6
BRANCH   5  16
ATOM     16  CB  GLN A   3       8.441  -1.200  21.666  0.00  0.00    +0.041 C 
BRANCH  16  17
ATOM     17  CG  GLN A   3       8.985  -0.058  22.524  0.00  0.00    +0.098 C 
BRANCH  17  18
ATOM     18  CD  GLN A   3       8.878   1.263  21.782  0.00  0.00    +0.211 C 
ATOM     19  NE2 GLN A   3      10.062   1.908  21.593  0.00  0.00    -0.329 N 
ATOM     20 HE21 GLN A   3      10.077   2.770  21.062  0.00  0.00    +0.145 HD
ATOM     21 HE22 GLN A   3      10.957   1.455  21.747  0.00  0.00    +0.145 HD
ATOM     22  OE1 GLN A   3       7.811   1.766  21.427  0.00  0.00    -0.276 OA
ENDBRANCH  17  18
ENDBRANCH  16  17
ENDBRANCH   5  16
ENDBRANCH   3   5
BRANCH   1  23
ATOM     23  CA  LEU A   2       5.797  -4.860  23.425  0.00  0.00    +0.159 C 
BRANCH  23  25
ATOM     24  C   LYS A   1       8.016  -5.359  24.403  0.00  0.00    +0.230 C 
ATOM     25  N   LEU A   2       6.663  -5.167  24.561  0.00  0.00    -0.303 N 
ATOM     26  H   LEU A   2       6.327  -4.854  25.466  0.00  0.00    +0.149 HD
ATOM     27  O   LYS A   1       8.554  -5.500  23.307  0.00  0.00    -0.274 OA
BRANCH  24  28
ATOM     28  CA  LYS A   1       8.822  -5.340  25.720  0.00  0.00    +0.138 C 
BRANCH  28  29
ATOM     29  N   LYS A   1      10.250  -5.518  25.417  0.00  0.00    -0.320 NA
ATOM     30  H1  LYS A   1      10.389  -6.438  24.994  0.00  0.00    +0.119 HD
ATOM     31  H2  LYS A   1      10.503  -4.858  24.675  0.00  0.00    +0.119 HD
ENDBRANCH  28  29
BRANCH  28  32
ATOM     32  CB  LYS A   1       8.606  -3.996  26.440  0.00  0.00    +0.028 C 
BRANCH  32  33
ATOM     33  CG  LYS A   1       8.845  -2.814  25.499  0.00  0.00    +0.007 C 
BRANCH  33  34
ATOM     34  CD  LYS A   1       7.926  -1.623  25.770  0.00  0.00    +0.051 C 
BRANCH  34  35
ATOM     35  CE  LYS A   1       8.780  -0.453  26.243  0.00  0.00    +0.127 C 
BRANCH  35  36
ATOM     36  NZ  LYS A   1       8.398  -0.045  27.609  0.00  0.00    +0.219 N 
ATOM     37  HZ1 LYS A   1       7.872  -0.779  28.096  0.00  0.00    +0.199 HD
ATOM     38  HZ2 LYS A   1       9.270   0.097  28.148  0.00  0.00    +0.199 HD
ATOM     39  HZ3 LYS A   1       7.852   0.824  27.626  0.00  0.00    +0.199 HD
ENDBRANCH  35  36
ENDBRANCH  34  35
ENDBRANCH  33  34
ENDBRANCH  32  33
ENDBRANCH  28  32
ENDBRANCH  24  28
ENDBRANCH  23  25
BRANCH  23  40
ATOM     40  CB  LEU A   2       4.365  -5.344  23.687  0.00  0.00    +0.034 C 
BRANCH  40  41
ATOM     41  CG  LEU A   2       4.105  -5.762  25.150  0.00  0.00    -0.015 C 
ATOM     42  CD2 LEU A   2       3.869  -7.267  25.290  0.00  0.00    +0.007 C 
ATOM     43  CD1 LEU A   2       2.901  -4.998  25.705  0.00  0.00    +0.007 C 
ENDBRANCH  40  41
ENDBRANCH  23  40
ENDBRANCH   1  23
TORSDOF 20
ENDMDL
MODEL 13
REMARK VINA RESULT:      -6.0      2.328      5.167
REMARK  Name = KLQS-mmff94.pdb
REMARK  22 active torsions:
REMARK  status: ('A' for Active; 'I' for Inactive)
REMARK    1  A    between atoms: _1  and  _2
REMARK    2  A    between atoms: _2  and  _3
REMARK    3  A    between atoms: _2  and  _5
REMARK    4  A    between atoms: _5  and  _6
REMARK    5  A    between atoms: _6  and  _7
REMARK    6  A    between atoms: _7  and  _8
REMARK    7  A    between atoms: _8  and  _9
REMARK    8  A    between atoms: _23  and  _24
REMARK    9  A    between atoms: _24  and  _25
REMARK   10  A    between atoms: _24  and  _27
REMARK   11  A    between atoms: _27  and  _28
REMARK   12  A    between atoms: _28  and  _29
REMARK   13  A    between atoms: _28  and  _30
REMARK   14  A    between atoms: _42  and  _43
REMARK   15  A    between atoms: _43  and  _44
REMARK   16  A    between atoms: _43  and  _46
REMARK   17  A    between atoms: _46  and  _47
REMARK   18  A    between atoms: _47  and  _48
REMARK   19  A    between atoms: _59  and  _60
REMARK   20  A    between atoms: _60  and  _61
REMARK   21  A    between atoms: _60  and  _63
REMARK   22  A    between atoms: _63  and  _64
REMARK                            x       y       z     vdW  Elec       q    Type
REMARK                         _______ _______ _______ _____ _____    ______ ____
ROOT
ATOM      1  C   LEU A   2       9.121  -1.837  23.955  0.00  0.00    +0.234 C 
ATOM      2  O   LEU A   2       9.943  -2.621  23.475  0.00  0.00    -0.274 OA
ATOM      3  N   GLN A   3       7.954  -1.519  23.306  0.00  0.00    -0.302 N 
ATOM      4  H   GLN A   3       7.274  -0.893  23.739  0.00  0.00    +0.150 HD
ENDROOT
BRANCH   3   5
ATOM      5  CA  GLN A   3       7.600  -2.053  21.991  0.00  0.00    +0.159 C 
BRANCH   5   6
ATOM      6  C   GLN A   3       7.669  -0.853  21.025  0.00  0.00    +0.234 C 
ATOM      7  N   SER A   4       6.491  -0.494  20.429  0.00  0.00    -0.302 N 
ATOM      8  H   SER A   4       5.622  -0.981  20.633  0.00  0.00    +0.150 HD
ATOM      9  O   GLN A   3       8.719  -0.244  20.818  0.00  0.00    -0.274 OA
BRANCH   7  10
ATOM     10  CA  SER A   4       6.377   0.690  19.574  0.00  0.00    +0.161 C 
BRANCH  10  11
ATOM     11  C   SER A   4       5.794   1.810  20.422  0.00  0.00    +0.247 C 
ATOM     12  O   SER A   4       6.428   2.345  21.335  0.00  0.00    -0.299 OA
ENDBRANCH  10  11
BRANCH  10  13
ATOM     13  CB  SER A   4       5.508   0.462  18.334  0.00  0.00    +0.185 C 
BRANCH  13  14
ATOM     14  OG  SER A   4       5.839  -0.772  17.701  0.00  0.00    -0.393 OA
ATOM     15  H   SER A   4       5.704  -1.476  18.362  0.00  0.00    +0.209 HD
ENDBRANCH  13  14
ENDBRANCH  10  13
ENDBRANCH   7  10
ENDBRANCH   5   6
BRANCH   5  16
ATOM     16  CB  GLN A   3       6.198  -2.685  22.022  0.00  0.00    +0.041 C 
BRANCH  16  17
ATOM     17  CG  GLN A   3       6.104  -3.903  22.941  0.00  0.00    +0.098 C 
BRANCH  17  18
ATOM     18  CD  GLN A   3       7.141  -4.942  22.553  0.00  0.00    +0.211 C 
ATOM     19  NE2 GLN A   3       6.899  -5.575  21.371  0.00  0.00    -0.329 N 
ATOM     20 HE21 GLN A   3       7.572  -6.245  21.022  0.00  0.00    +0.145 HD
ATOM     21 HE22 GLN A   3       6.206  -5.241  20.710  0.00  0.00    +0.145 HD
ATOM     22  OE1 GLN A   3       8.099  -5.256  23.262  0.00  0.00    -0.276 OA
ENDBRANCH  17  18
ENDBRANCH  16  17
ENDBRANCH   5  16
ENDBRANCH   3   5
BRANCH   1  23
ATOM     23  CA  LEU A   2       9.309  -1.156  25.333  0.00  0.00    +0.159 C 
BRANCH  23  25
ATOM     24  C   LYS A   1      10.082   1.052  24.522  0.00  0.00    +0.230 C 
ATOM     25  N   LEU A   2       9.125   0.281  25.140  0.00  0.00    -0.303 N 
ATOM     26  H   LEU A   2       8.162   0.601  25.113  0.00  0.00    +0.149 HD
ATOM     27  O   LYS A   1      11.221   0.654  24.286  0.00  0.00    -0.274 OA
BRANCH  24  28
ATOM     28  CA  LYS A   1       9.598   2.458  24.104  0.00  0.00    +0.138 C 
BRANCH  28  29
ATOM     29  N   LYS A   1       9.297   2.459  22.664  0.00  0.00    -0.320 NA
ATOM     30  H1  LYS A   1       9.687   1.614  22.242  0.00  0.00    +0.119 HD
ATOM     31  H2  LYS A   1       8.284   2.355  22.551  0.00  0.00    +0.119 HD
ENDBRANCH  28  29
BRANCH  28  32
ATOM     32  CB  LYS A   1       8.333   2.828  24.901  0.00  0.00    +0.028 C 
BRANCH  32  33
ATOM     33  CG  LYS A   1       8.227   4.340  25.107  0.00  0.00    +0.007 C 
BRANCH  33  34
ATOM     34  CD  LYS A   1       7.112   4.991  24.288  0.00  0.00    +0.051 C 
BRANCH  34  35
ATOM     35  CE  LYS A   1       7.745   5.740  23.122  0.00  0.00    +0.127 C 
BRANCH  35  36
ATOM     36  NZ  LYS A   1       7.427   5.080  21.842  0.00  0.00    +0.219 N 
ATOM     37  HZ1 LYS A   1       6.676   5.564  21.336  0.00  0.00    +0.199 HD
ATOM     38  HZ2 LYS A   1       8.269   5.138  21.243  0.00  0.00    +0.199 HD
ATOM     39  HZ3 LYS A   1       7.169   4.093  21.957  0.00  0.00    +0.199 HD
ENDBRANCH  35  36
ENDBRANCH  34  35
ENDBRANCH  33  34
ENDBRANCH  32  33
ENDBRANCH  28  32
ENDBRANCH  24  28
ENDBRANCH  23  25
BRANCH  23  40
ATOM     40  CB  LEU A   2       8.313  -1.698  26.366  0.00  0.00    +0.034 C 
BRANCH  40  41
ATOM     41  CG  LEU A   2       7.849  -3.142  26.087  0.00  0.00    -0.015 C 
ATOM     42  CD2 LEU A   2       6.481  -3.442  26.705  0.00  0.00    +0.007 C 
ATOM     43  CD1 LEU A   2       8.883  -4.136  26.622  0.00  0.00    +0.007 C 
ENDBRANCH  40  41
ENDBRANCH  23  40
ENDBRANCH   1  23
TORSDOF 20
ENDMDL
MODEL 14
REMARK VINA RESULT:      -5.9      2.308      5.266
REMARK  Name = KLQS-mmff94.pdb
REMARK  22 active torsions:
REMARK  status: ('A' for Active; 'I' for Inactive)
REMARK    1  A    between atoms: _1  and  _2
REMARK    2  A    between atoms: _2  and  _3
REMARK    3  A    between atoms: _2  and  _5
REMARK    4  A    between atoms: _5  and  _6
REMARK    5  A    between atoms: _6  and  _7
REMARK    6  A    between atoms: _7  and  _8
REMARK    7  A    between atoms: _8  and  _9
REMARK    8  A    between atoms: _23  and  _24
REMARK    9  A    between atoms: _24  and  _25
REMARK   10  A    between atoms: _24  and  _27
REMARK   11  A    between atoms: _27  and  _28
REMARK   12  A    between atoms: _28  and  _29
REMARK   13  A    between atoms: _28  and  _30
REMARK   14  A    between atoms: _42  and  _43
REMARK   15  A    between atoms: _43  and  _44
REMARK   16  A    between atoms: _43  and  _46
REMARK   17  A    between atoms: _46  and  _47
REMARK   18  A    between atoms: _47  and  _48
REMARK   19  A    between atoms: _59  and  _60
REMARK   20  A    between atoms: _60  and  _61
REMARK   21  A    between atoms: _60  and  _63
REMARK   22  A    between atoms: _63  and  _64
REMARK                            x       y       z     vdW  Elec       q    Type
REMARK                         _______ _______ _______ _____ _____    ______ ____
ROOT
ATOM      1  C   LEU A   2       8.758  -2.194  24.260  0.00  0.00    +0.234 C 
ATOM      2  O   LEU A   2       9.916  -2.207  23.837  0.00  0.00    -0.274 OA
ATOM      3  N   GLN A   3       8.027  -3.346  24.417  0.00  0.00    -0.302 N 
ATOM      4  H   GLN A   3       7.083  -3.313  24.802  0.00  0.00    +0.150 HD
ENDROOT
BRANCH   3   5
ATOM      5  CA  GLN A   3       8.542  -4.671  24.072  0.00  0.00    +0.159 C 
BRANCH   5   6
ATOM      6  C   GLN A   3       7.380  -5.394  23.363  0.00  0.00    +0.234 C 
ATOM      7  N   SER A   4       6.239  -5.563  24.099  0.00  0.00    -0.302 N 
ATOM      8  H   SER A   4       6.163  -5.211  25.049  0.00  0.00    +0.150 HD
ATOM      9  O   GLN A   3       7.469  -5.779  22.197  0.00  0.00    -0.274 OA
BRANCH   7  10
ATOM     10  CA  SER A   4       5.017  -6.134  23.527  0.00  0.00    +0.161 C 
BRANCH  10  11
ATOM     11  C   SER A   4       4.156  -4.975  23.046  0.00  0.00    +0.247 C 
ATOM     12  O   SER A   4       2.924  -5.029  23.035  0.00  0.00    -0.299 OA
ENDBRANCH  10  11
BRANCH  10  13
ATOM     13  CB  SER A   4       4.231  -6.999  24.516  0.00  0.00    +0.185 C 
BRANCH  13  14
ATOM     14  OG  SER A   4       3.334  -7.870  23.829  0.00  0.00    -0.393 OA
ATOM     15  H   SER A   4       3.306  -7.575  22.901  0.00  0.00    +0.209 HD
ENDBRANCH  13  14
ENDBRANCH  10  13
ENDBRANCH   7  10
ENDBRANCH   5   6
BRANCH   5  16
ATOM     16  CB  GLN A   3       9.000  -5.421  25.334  0.00  0.00    +0.041 C 
BRANCH  16  17
ATOM     17  CG  GLN A   3       8.708  -4.661  26.628  0.00  0.00    +0.098 C 
BRANCH  17  18
ATOM     18  CD  GLN A   3       7.336  -5.031  27.164  0.00  0.00    +0.211 C 
ATOM     19  NE2 GLN A   3       7.297  -6.192  27.877  0.00  0.00    -0.329 N 
ATOM     20 HE21 GLN A   3       6.428  -6.478  28.308  0.00  0.00    +0.145 HD
ATOM     21 HE22 GLN A   3       8.138  -6.659  28.198  0.00  0.00    +0.145 HD
ATOM     22  OE1 GLN A   3       6.311  -4.388  26.932  0.00  0.00    -0.276 OA
ENDBRANCH  17  18
ENDBRANCH  16  17
ENDBRANCH   5  16
ENDBRANCH   3   5
BRANCH   1  23
ATOM     23  CA  LEU A   2       8.024  -0.895  24.676  0.00  0.00    +0.159 C 
BRANCH  23  25
ATOM     24  C   LYS A   1       8.679   1.083  23.338  0.00  0.00    +0.230 C 
ATOM     25  N   LEU A   2       7.917  -0.052  23.487  0.00  0.00    -0.303 N 
ATOM     26  H   LEU A   2       7.582  -0.516  22.649  0.00  0.00    +0.149 HD
ATOM     27  O   LYS A   1       9.330   1.584  24.254  0.00  0.00    -0.274 OA
BRANCH  24  28
ATOM     28  CA  LYS A   1       8.691   1.662  21.907  0.00  0.00    +0.138 C 
BRANCH  28  29
ATOM     29  N   LYS A   1      10.012   2.246  21.630  0.00  0.00    -0.320 NA
ATOM     30  H1  LYS A   1      10.336   1.919  20.717  0.00  0.00    +0.119 HD
ATOM     31  H2  LYS A   1       9.896   3.256  21.512  0.00  0.00    +0.119 HD
ENDBRANCH  28  29
BRANCH  28  32
ATOM     32  CB  LYS A   1       8.393   0.542  20.893  0.00  0.00    +0.028 C 
BRANCH  32  33
ATOM     33  CG  LYS A   1       7.101   0.818  20.121  0.00  0.00    +0.007 C 
BRANCH  33  34
ATOM     34  CD  LYS A   1       7.039   0.116  18.765  0.00  0.00    +0.051 C 
BRANCH  34  35
ATOM     35  CE  LYS A   1       5.718   0.476  18.096  0.00  0.00    +0.127 C 
BRANCH  35  36
ATOM     36  NZ  LYS A   1       4.794   1.098  19.064  0.00  0.00    +0.219 N 
ATOM     37  HZ1 LYS A   1       3.836   0.744  18.962  0.00  0.00    +0.199 HD
ATOM     38  HZ2 LYS A   1       5.107   0.828  20.013  0.00  0.00    +0.199 HD
ATOM     39  HZ3 LYS A   1       4.780   2.122  18.998  0.00  0.00    +0.199 HD
ENDBRANCH  35  36
ENDBRANCH  34  35
ENDBRANCH  33  34
ENDBRANCH  32  33
ENDBRANCH  28  32
ENDBRANCH  24  28
ENDBRANCH  23  25
BRANCH  23  40
ATOM     40  CB  LEU A   2       6.637  -1.195  25.257  0.00  0.00    +0.034 C 
BRANCH  40  41
ATOM     41  CG  LEU A   2       6.241  -0.278  26.433  0.00  0.00    -0.015 C 
ATOM     42  CD2 LEU A   2       5.515   0.985  25.964  0.00  0.00    +0.007 C 
ATOM     43  CD1 LEU A   2       7.486   0.112  27.233  0.00  0.00    +0.007 C 
ENDBRANCH  40  41
ENDBRANCH  23  40
ENDBRANCH   1  23
TORSDOF 20
ENDMDL
MODEL 15
REMARK VINA RESULT:      -5.9      2.426      6.364
REMARK  Name = KLQS-mmff94.pdb
REMARK  22 active torsions:
REMARK  status: ('A' for Active; 'I' for Inactive)
REMARK    1  A    between atoms: _1  and  _2
REMARK    2  A    between atoms: _2  and  _3
REMARK    3  A    between atoms: _2  and  _5
REMARK    4  A    between atoms: _5  and  _6
REMARK    5  A    between atoms: _6  and  _7
REMARK    6  A    between atoms: _7  and  _8
REMARK    7  A    between atoms: _8  and  _9
REMARK    8  A    between atoms: _23  and  _24
REMARK    9  A    between atoms: _24  and  _25
REMARK   10  A    between atoms: _24  and  _27
REMARK   11  A    between atoms: _27  and  _28
REMARK   12  A    between atoms: _28  and  _29
REMARK   13  A    between atoms: _28  and  _30
REMARK   14  A    between atoms: _42  and  _43
REMARK   15  A    between atoms: _43  and  _44
REMARK   16  A    between atoms: _43  and  _46
REMARK   17  A    between atoms: _46  and  _47
REMARK   18  A    between atoms: _47  and  _48
REMARK   19  A    between atoms: _59  and  _60
REMARK   20  A    between atoms: _60  and  _61
REMARK   21  A    between atoms: _60  and  _63
REMARK   22  A    between atoms: _63  and  _64
REMARK                            x       y       z     vdW  Elec       q    Type
REMARK                         _______ _______ _______ _____ _____    ______ ____
ROOT
ATOM      1  C   LEU A   2       9.031  -1.509  22.616  0.00  0.00    +0.234 C 
ATOM      2  O   LEU A   2      10.094  -1.778  22.051  0.00  0.00    -0.274 OA
ATOM      3  N   GLN A   3       8.269  -0.425  22.255  0.00  0.00    -0.302 N 
ATOM      4  H   GLN A   3       7.377  -0.242  22.714  0.00  0.00    +0.150 HD
ENDROOT
BRANCH   3   5
ATOM      5  CA  GLN A   3       8.661   0.511  21.202  0.00  0.00    +0.159 C 
BRANCH   5   6
ATOM      6  C   GLN A   3       9.185   1.762  21.934  0.00  0.00    +0.234 C 
ATOM      7  N   SER A   4       8.237   2.551  22.527  0.00  0.00    -0.302 N 
ATOM      8  H   SER A   4       7.251   2.308  22.500  0.00  0.00    +0.150 HD
ATOM      9  O   GLN A   3      10.386   2.024  21.997  0.00  0.00    -0.274 OA
BRANCH   7  10
ATOM     10  CA  SER A   4       8.589   3.711  23.350  0.00  0.00    +0.161 C 
BRANCH  10  11
ATOM     11  C   SER A   4       8.417   3.305  24.806  0.00  0.00    +0.247 C 
ATOM     12  O   SER A   4       8.591   2.147  25.193  0.00  0.00    -0.299 OA
ENDBRANCH  10  11
BRANCH  10  13
ATOM     13  CB  SER A   4       7.743   4.950  23.046  0.00  0.00    +0.185 C 
BRANCH  13  14
ATOM     14  OG  SER A   4       7.383   4.995  21.667  0.00  0.00    -0.393 OA
ATOM     15  H   SER A   4       6.464   5.315  21.623  0.00  0.00    +0.209 HD
ENDBRANCH  13  14
ENDBRANCH  10  13
ENDBRANCH   7  10
ENDBRANCH   5   6
BRANCH   5  16
ATOM     16  CB  GLN A   3       7.464   0.837  20.293  0.00  0.00    +0.041 C 
BRANCH  16  17
ATOM     17  CG  GLN A   3       7.530   0.140  18.934  0.00  0.00    +0.098 C 
BRANCH  17  18
ATOM     18  CD  GLN A   3       6.165  -0.407  18.551  0.00  0.00    +0.211 C 
ATOM     19  NE2 GLN A   3       5.483  -1.000  19.570  0.00  0.00    -0.329 N 
ATOM     20 HE21 GLN A   3       4.545  -1.343  19.403  0.00  0.00    +0.145 HD
ATOM     21 HE22 GLN A   3       5.765  -0.905  20.539  0.00  0.00    +0.145 HD
ATOM     22  OE1 GLN A   3       5.714  -0.387  17.404  0.00  0.00    -0.276 OA
ENDBRANCH  17  18
ENDBRANCH  16  17
ENDBRANCH   5  16
ENDBRANCH   3   5
BRANCH   1  23
ATOM     23  CA  LEU A   2       8.441  -2.369  23.761  0.00  0.00    +0.159 C 
BRANCH  23  25
ATOM     24  C   LYS A   1       6.069  -3.014  23.469  0.00  0.00    +0.230 C 
ATOM     25  N   LEU A   2       7.399  -3.214  23.183  0.00  0.00    -0.303 N 
ATOM     26  H   LEU A   2       7.637  -3.665  22.305  0.00  0.00    +0.149 HD
ATOM     27  O   LYS A   1       5.676  -2.277  24.372  0.00  0.00    -0.274 OA
BRANCH  24  28
ATOM     28  CA  LYS A   1       5.094  -3.762  22.533  0.00  0.00    +0.138 C 
BRANCH  28  29
ATOM     29  N   LYS A   1       5.597  -3.692  21.153  0.00  0.00    -0.320 NA
ATOM     30  H1  LYS A   1       4.882  -3.267  20.559  0.00  0.00    +0.119 HD
ATOM     31  H2  LYS A   1       6.374  -3.025  21.131  0.00  0.00    +0.119 HD
ENDBRANCH  28  29
BRANCH  28  32
ATOM     32  CB  LYS A   1       4.980  -5.233  22.973  0.00  0.00    +0.028 C 
BRANCH  32  33
ATOM     33  CG  LYS A   1       4.448  -5.348  24.403  0.00  0.00    +0.007 C 
BRANCH  33  34
ATOM     34  CD  LYS A   1       5.363  -6.147  25.332  0.00  0.00    +0.051 C 
BRANCH  34  35
ATOM     35  CE  LYS A   1       4.852  -5.994  26.759  0.00  0.00    +0.127 C 
BRANCH  35  36
ATOM     36  NZ  LYS A   1       5.137  -7.207  27.549  0.00  0.00    +0.219 N 
ATOM     37  HZ1 LYS A   1       6.050  -7.614  27.314  0.00  0.00    +0.199 HD
ATOM     38  HZ2 LYS A   1       5.189  -6.927  28.545  0.00  0.00    +0.199 HD
ATOM     39  HZ3 LYS A   1       4.414  -7.929  27.445  0.00  0.00    +0.199 HD
ENDBRANCH  35  36
ENDBRANCH  34  35
ENDBRANCH  33  34
ENDBRANCH  32  33
ENDBRANCH  28  32
ENDBRANCH  24  28
ENDBRANCH  23  25
BRANCH  23  40
ATOM     40  CB  LEU A   2       9.523  -3.223  24.435  0.00  0.00    +0.034 C 
BRANCH  40  41
ATOM     41  CG  LEU A   2       8.962  -4.378  25.291  0.00  0.00    -0.015 C 
ATOM     42  CD2 LEU A   2       8.248  -3.874  26.548  0.00  0.00    +0.007 C 
ATOM     43  CD1 LEU A   2      10.093  -5.330  25.689  0.00  0.00    +0.007 C 
ENDBRANCH  40  41
ENDBRANCH  23  40
ENDBRANCH   1  23
TORSDOF 20
ENDMDL
MODEL 16
REMARK VINA RESULT:      -5.9      2.291      6.085
REMARK  Name = KLQS-mmff94.pdb
REMARK  22 active torsions:
REMARK  status: ('A' for Active; 'I' for Inactive)
REMARK    1  A    between atoms: _1  and  _2
REMARK    2  A    between atoms: _2  and  _3
REMARK    3  A    between atoms: _2  and  _5
REMARK    4  A    between atoms: _5  and  _6
REMARK    5  A    between atoms: _6  and  _7
REMARK    6  A    between atoms: _7  and  _8
REMARK    7  A    between atoms: _8  and  _9
REMARK    8  A    between atoms: _23  and  _24
REMARK    9  A    between atoms: _24  and  _25
REMARK   10  A    between atoms: _24  and  _27
REMARK   11  A    between atoms: _27  and  _28
REMARK   12  A    between atoms: _28  and  _29
REMARK   13  A    between atoms: _28  and  _30
REMARK   14  A    between atoms: _42  and  _43
REMARK   15  A    between atoms: _43  and  _44
REMARK   16  A    between atoms: _43  and  _46
REMARK   17  A    between atoms: _46  and  _47
REMARK   18  A    between atoms: _47  and  _48
REMARK   19  A    between atoms: _59  and  _60
REMARK   20  A    between atoms: _60  and  _61
REMARK   21  A    between atoms: _60  and  _63
REMARK   22  A    between atoms: _63  and  _64
REMARK                            x       y       z     vdW  Elec       q    Type
REMARK                         _______ _______ _______ _____ _____    ______ ____
ROOT
ATOM      1  C   LEU A   2       8.157  -2.212  22.089  0.00  0.00    +0.234 C 
ATOM      2  O   LEU A   2       9.383  -2.339  22.074  0.00  0.00    -0.274 OA
ATOM      3  N   GLN A   3       7.528  -1.140  21.504  0.00  0.00    -0.302 N 
ATOM      4  H   GLN A   3       6.510  -1.074  21.501  0.00  0.00    +0.150 HD
ENDROOT
BRANCH   3   5
ATOM      5  CA  GLN A   3       8.252  -0.053  20.846  0.00  0.00    +0.159 C 
BRANCH   5   6
ATOM      6  C   GLN A   3       7.893   1.222  21.636  0.00  0.00    +0.234 C 
ATOM      7  N   SER A   4       6.675   1.218  22.260  0.00  0.00    -0.302 N 
ATOM      8  H   SER A   4       6.059   0.411  22.218  0.00  0.00    +0.150 HD
ATOM      9  O   GLN A   3       8.666   2.177  21.715  0.00  0.00    -0.274 OA
BRANCH   7  10
ATOM     10  CA  SER A   4       6.243   2.310  23.136  0.00  0.00    +0.161 C 
BRANCH  10  11
ATOM     11  C   SER A   4       5.413   1.696  24.253  0.00  0.00    +0.247 C 
ATOM     12  O   SER A   4       4.260   2.062  24.496  0.00  0.00    -0.299 OA
ENDBRANCH  10  11
BRANCH  10  13
ATOM     13  CB  SER A   4       5.432   3.386  22.409  0.00  0.00    +0.185 C 
BRANCH  13  14
ATOM     14  OG  SER A   4       4.513   2.798  21.491  0.00  0.00    -0.393 OA
ATOM     15  H   SER A   4       4.725   1.849  21.444  0.00  0.00    +0.209 HD
ENDBRANCH  13  14
ENDBRANCH  10  13
ENDBRANCH   7  10
ENDBRANCH   5   6
BRANCH   5  16
ATOM     16  CB  GLN A   3       7.841   0.054  19.368  0.00  0.00    +0.041 C 
BRANCH  16  17
ATOM     17  CG  GLN A   3       6.364  -0.255  19.126  0.00  0.00    +0.098 C 
BRANCH  17  18
ATOM     18  CD  GLN A   3       5.690   0.900  18.407  0.00  0.00    +0.211 C 
ATOM     19  NE2 GLN A   3       4.547   1.349  18.997  0.00  0.00    -0.329 N 
ATOM     20 HE21 GLN A   3       4.069   2.150  18.603  0.00  0.00    +0.145 HD
ATOM     21 HE22 GLN A   3       4.281   1.080  19.938  0.00  0.00    +0.145 HD
ATOM     22  OE1 GLN A   3       6.086   1.369  17.339  0.00  0.00    -0.276 OA
ENDBRANCH  17  18
ENDBRANCH  16  17
ENDBRANCH   5  16
ENDBRANCH   3   5
BRANCH   1  23
ATOM     23  CA  LEU A   2       7.208  -3.247  22.742  0.00  0.00    +0.159 C 
BRANCH  23  25
ATOM     24  C   LYS A   1       7.129  -2.760  25.168  0.00  0.00    +0.230 C 
ATOM     25  N   LEU A   2       6.599  -2.611  23.908  0.00  0.00    -0.303 N 
ATOM     26  H   LEU A   2       6.047  -1.781  23.716  0.00  0.00    +0.149 HD
ATOM     27  O   LYS A   1       7.997  -3.586  25.442  0.00  0.00    -0.274 OA
BRANCH  24  28
ATOM     28  CA  LYS A   1       6.576  -1.770  26.216  0.00  0.00    +0.138 C 
BRANCH  28  29
ATOM     29  N   LYS A   1       5.942  -2.523  27.308  0.00  0.00    -0.320 NA
ATOM     30  H1  LYS A   1       6.586  -2.566  28.100  0.00  0.00    +0.119 HD
ATOM     31  H2  LYS A   1       5.150  -1.974  27.655  0.00  0.00    +0.119 HD
ENDBRANCH  28  29
BRANCH  28  32
ATOM     32  CB  LYS A   1       7.726  -0.910  26.773  0.00  0.00    +0.028 C 
BRANCH  32  33
ATOM     33  CG  LYS A   1       8.296   0.021  25.702  0.00  0.00    +0.007 C 
BRANCH  33  34
ATOM     34  CD  LYS A   1       9.729  -0.323  25.294  0.00  0.00    +0.051 C 
BRANCH  34  35
ATOM     35  CE  LYS A   1      10.345   0.898  24.623  0.00  0.00    +0.127 C 
BRANCH  35  36
ATOM     36  NZ  LYS A   1       9.464   2.073  24.763  0.00  0.00    +0.219 N 
ATOM     37  HZ1 LYS A   1       8.649   1.873  25.354  0.00  0.00    +0.199 HD
ATOM     38  HZ2 LYS A   1      10.003   2.812  25.246  0.00  0.00    +0.199 HD
ATOM     39  HZ3 LYS A   1       9.139   2.436  23.859  0.00  0.00    +0.199 HD
ENDBRANCH  35  36
ENDBRANCH  34  35
ENDBRANCH  33  34
ENDBRANCH  32  33
ENDBRANCH  28  32
ENDBRANCH  24  28
ENDBRANCH  23  25
BRANCH  23  40
ATOM     40  CB  LEU A   2       6.132  -3.721  21.757  0.00  0.00    +0.034 C 
BRANCH  40  41
ATOM     41  CG  LEU A   2       5.940  -5.252  21.732  0.00  0.00    -0.015 C 
ATOM     42  CD2 LEU A   2       4.864  -5.718  22.715  0.00  0.00    +0.007 C 
ATOM     43  CD1 LEU A   2       7.265  -5.950  22.051  0.00  0.00    +0.007 C 
ENDBRANCH  40  41
ENDBRANCH  23  40
ENDBRANCH   1  23
TORSDOF 20
ENDMDL
MODEL 17
REMARK VINA RESULT:      -5.9      2.272      5.245
REMARK  Name = KLQS-mmff94.pdb
REMARK  22 active torsions:
REMARK  status: ('A' for Active; 'I' for Inactive)
REMARK    1  A    between atoms: _1  and  _2
REMARK    2  A    between atoms: _2  and  _3
REMARK    3  A    between atoms: _2  and  _5
REMARK    4  A    between atoms: _5  and  _6
REMARK    5  A    between atoms: _6  and  _7
REMARK    6  A    between atoms: _7  and  _8
REMARK    7  A    between atoms: _8  and  _9
REMARK    8  A    between atoms: _23  and  _24
REMARK    9  A    between atoms: _24  and  _25
REMARK   10  A    between atoms: _24  and  _27
REMARK   11  A    between atoms: _27  and  _28
REMARK   12  A    between atoms: _28  and  _29
REMARK   13  A    between atoms: _28  and  _30
REMARK   14  A    between atoms: _42  and  _43
REMARK   15  A    between atoms: _43  and  _44
REMARK   16  A    between atoms: _43  and  _46
REMARK   17  A    between atoms: _46  and  _47
REMARK   18  A    between atoms: _47  and  _48
REMARK   19  A    between atoms: _59  and  _60
REMARK   20  A    between atoms: _60  and  _61
REMARK   21  A    between atoms: _60  and  _63
REMARK   22  A    between atoms: _63  and  _64
REMARK                            x       y       z     vdW  Elec       q    Type
REMARK                         _______ _______ _______ _____ _____    ______ ____
ROOT
ATOM      1  C   LEU A   2       9.520  -1.557  24.551  0.00  0.00    +0.234 C 
ATOM      2  O   LEU A   2      10.269  -1.501  23.573  0.00  0.00    -0.274 OA
ATOM      3  N   GLN A   3       8.893  -2.721  24.921  0.00  0.00    -0.302 N 
ATOM      4  H   GLN A   3       8.304  -2.750  25.754  0.00  0.00    +0.150 HD
ENDROOT
BRANCH   3   5
ATOM      5  CA  GLN A   3       9.034  -3.974  24.181  0.00  0.00    +0.159 C 
BRANCH   5   6
ATOM      6  C   GLN A   3       7.783  -4.068  23.284  0.00  0.00    +0.234 C 
ATOM      7  N   SER A   4       6.918  -5.090  23.564  0.00  0.00    -0.302 N 
ATOM      8  H   SER A   4       7.086  -5.732  24.334  0.00  0.00    +0.150 HD
ATOM      9  O   GLN A   3       7.568  -3.258  22.381  0.00  0.00    -0.274 OA
BRANCH   7  10
ATOM     10  CA  SER A   4       5.636  -5.241  22.871  0.00  0.00    +0.161 C 
BRANCH  10  11
ATOM     11  C   SER A   4       4.693  -5.972  23.815  0.00  0.00    +0.247 C 
ATOM     12  O   SER A   4       4.865  -7.150  24.138  0.00  0.00    -0.299 OA
ENDBRANCH  10  11
BRANCH  10  13
ATOM     13  CB  SER A   4       5.748  -6.000  21.547  0.00  0.00    +0.185 C 
BRANCH  13  14
ATOM     14  OG  SER A   4       5.959  -5.100  20.461  0.00  0.00    -0.393 OA
ATOM     15  H   SER A   4       6.912  -4.894  20.443  0.00  0.00    +0.209 HD
ENDBRANCH  13  14
ENDBRANCH  10  13
ENDBRANCH   7  10
ENDBRANCH   5   6
BRANCH   5  16
ATOM     16  CB  GLN A   3       9.137  -5.166  25.147  0.00  0.00    +0.041 C 
BRANCH  16  17
ATOM     17  CG  GLN A   3       8.908  -4.782  26.608  0.00  0.00    +0.098 C 
BRANCH  17  18
ATOM     18  CD  GLN A   3       7.467  -5.045  27.007  0.00  0.00    +0.211 C 
ATOM     19  NE2 GLN A   3       7.287  -6.132  27.809  0.00  0.00    -0.329 N 
ATOM     20 HE21 GLN A   3       6.360  -6.341  28.158  0.00  0.00    +0.145 HD
ATOM     21 HE22 GLN A   3       8.061  -6.601  28.268  0.00  0.00    +0.145 HD
ATOM     22  OE1 GLN A   3       6.509  -4.385  26.600  0.00  0.00    -0.276 OA
ENDBRANCH  17  18
ENDBRANCH  16  17
ENDBRANCH   5  16
ENDBRANCH   3   5
BRANCH   1  23
ATOM     23  CA  LEU A   2       9.230  -0.340  25.464  0.00  0.00    +0.159 C 
BRANCH  23  25
ATOM     24  C   LYS A   1       9.884   1.600  24.072  0.00  0.00    +0.230 C 
ATOM     25  N   LEU A   2       8.905   0.791  24.598  0.00  0.00    -0.303 N 
ATOM     26  H   LEU A   2       8.023   0.722  24.100  0.00  0.00    +0.149 HD
ATOM     27  O   LYS A   1      11.054   1.575  24.449  0.00  0.00    -0.274 OA
BRANCH  24  28
ATOM     28  CA  LYS A   1       9.407   2.523  22.930  0.00  0.00    +0.138 C 
BRANCH  28  29
ATOM     29  N   LYS A   1      10.117   2.171  21.692  0.00  0.00    -0.320 NA
ATOM     30  H1  LYS A   1      11.122   2.287  21.839  0.00  0.00    +0.119 HD
ATOM     31  H2  LYS A   1       9.999   1.166  21.532  0.00  0.00    +0.119 HD
ENDBRANCH  28  29
BRANCH  28  32
ATOM     32  CB  LYS A   1       7.890   2.353  22.728  0.00  0.00    +0.028 C 
BRANCH  32  33
ATOM     33  CG  LYS A   1       7.566   1.885  21.308  0.00  0.00    +0.007 C 
BRANCH  33  34
ATOM     34  CD  LYS A   1       7.060   0.444  21.242  0.00  0.00    +0.051 C 
BRANCH  34  35
ATOM     35  CE  LYS A   1       7.971  -0.345  20.309  0.00  0.00    +0.127 C 
BRANCH  35  36
ATOM     36  NZ  LYS A   1       9.198  -0.767  21.010  0.00  0.00    +0.219 N 
ATOM     37  HZ1 LYS A   1       9.762   0.035  21.314  0.00  0.00    +0.199 HD
ATOM     38  HZ2 LYS A   1       8.911  -1.266  21.871  0.00  0.00    +0.199 HD
ATOM     39  HZ3 LYS A   1       9.785  -1.391  20.444  0.00  0.00    +0.199 HD
ENDBRANCH  35  36
ENDBRANCH  34  35
ENDBRANCH  33  34
ENDBRANCH  32  33
ENDBRANCH  28  32
ENDBRANCH  24  28
ENDBRANCH  23  25
BRANCH  23  40
ATOM     40  CB  LEU A   2       8.079  -0.630  26.436  0.00  0.00    +0.034 C 
BRANCH  40  41
ATOM     41  CG  LEU A   2       6.758   0.077  26.066  0.00  0.00    -0.015 C 
ATOM     42  CD2 LEU A   2       6.005   0.580  27.299  0.00  0.00    +0.007 C 
ATOM     43  CD1 LEU A   2       5.862  -0.875  25.269  0.00  0.00    +0.007 C 
ENDBRANCH  40  41
ENDBRANCH  23  40
ENDBRANCH   1  23
TORSDOF 20
ENDMDL
MODEL 18
REMARK VINA RESULT:      -5.9      1.972      5.435
REMARK  Name = KLQS-mmff94.pdb
REMARK  22 active torsions:
REMARK  status: ('A' for Active; 'I' for Inactive)
REMARK    1  A    between atoms: _1  and  _2
REMARK    2  A    between atoms: _2  and  _3
REMARK    3  A    between atoms: _2  and  _5
REMARK    4  A    between atoms: _5  and  _6
REMARK    5  A    between atoms: _6  and  _7
REMARK    6  A    between atoms: _7  and  _8
REMARK    7  A    between atoms: _8  and  _9
REMARK    8  A    between atoms: _23  and  _24
REMARK    9  A    between atoms: _24  and  _25
REMARK   10  A    between atoms: _24  and  _27
REMARK   11  A    between atoms: _27  and  _28
REMARK   12  A    between atoms: _28  and  _29
REMARK   13  A    between atoms: _28  and  _30
REMARK   14  A    between atoms: _42  and  _43
REMARK   15  A    between atoms: _43  and  _44
REMARK   16  A    between atoms: _43  and  _46
REMARK   17  A    between atoms: _46  and  _47
REMARK   18  A    between atoms: _47  and  _48
REMARK   19  A    between atoms: _59  and  _60
REMARK   20  A    between atoms: _60  and  _61
REMARK   21  A    between atoms: _60  and  _63
REMARK   22  A    between atoms: _63  and  _64
REMARK                            x       y       z     vdW  Elec       q    Type
REMARK                         _______ _______ _______ _____ _____    ______ ____
ROOT
ATOM      1  C   LEU A   2       8.695  -1.690  25.804  0.00  0.00    +0.234 C 
ATOM      2  O   LEU A   2       8.990  -1.450  26.976  0.00  0.00    -0.274 OA
ATOM      3  N   GLN A   3       7.746  -2.624  25.469  0.00  0.00    -0.302 N 
ATOM      4  H   GLN A   3       7.495  -2.782  24.492  0.00  0.00    +0.150 HD
ENDROOT
BRANCH   3   5
ATOM      5  CA  GLN A   3       7.032  -3.428  26.460  0.00  0.00    +0.159 C 
BRANCH   5   6
ATOM      6  C   GLN A   3       6.622  -4.721  25.728  0.00  0.00    +0.234 C 
ATOM      7  N   SER A   4       6.383  -4.601  24.386  0.00  0.00    -0.302 N 
ATOM      8  H   SER A   4       6.492  -3.713  23.904  0.00  0.00    +0.150 HD
ATOM      9  O   GLN A   3       6.533  -5.800  26.314  0.00  0.00    -0.274 OA
BRANCH   7  10
ATOM     10  CA  SER A   4       6.092  -5.760  23.537  0.00  0.00    +0.161 C 
BRANCH  10  11
ATOM     11  C   SER A   4       7.020  -5.686  22.334  0.00  0.00    +0.247 C 
ATOM     12  O   SER A   4       6.703  -5.108  21.292  0.00  0.00    -0.299 OA
ENDBRANCH  10  11
BRANCH  10  13
ATOM     13  CB  SER A   4       4.634  -5.822  23.075  0.00  0.00    +0.185 C 
BRANCH  13  14
ATOM     14  OG  SER A   4       4.184  -4.544  22.633  0.00  0.00    -0.393 OA
ATOM     15  H   SER A   4       4.925  -4.132  22.152  0.00  0.00    +0.209 HD
ENDBRANCH  13  14
ENDBRANCH  10  13
ENDBRANCH   7  10
ENDBRANCH   5   6
BRANCH   5  16
ATOM     16  CB  GLN A   3       5.812  -2.663  27.001  0.00  0.00    +0.041 C 
BRANCH  16  17
ATOM     17  CG  GLN A   3       4.926  -2.082  25.899  0.00  0.00    +0.098 C 
BRANCH  17  18
ATOM     18  CD  GLN A   3       5.240  -0.611  25.685  0.00  0.00    +0.211 C 
ATOM     19  NE2 GLN A   3       5.028   0.181  26.774  0.00  0.00    -0.329 N 
ATOM     20 HE21 GLN A   3       5.263   1.163  26.723  0.00  0.00    +0.145 HD
ATOM     21 HE22 GLN A   3       4.875  -0.202  27.701  0.00  0.00    +0.145 HD
ATOM     22  OE1 GLN A   3       5.596  -0.134  24.607  0.00  0.00    -0.276 OA
ENDBRANCH  17  18
ENDBRANCH  16  17
ENDBRANCH   5  16
ENDBRANCH   3   5
BRANCH   1  23
ATOM     23  CA  LEU A   2       9.340  -0.956  24.603  0.00  0.00    +0.159 C 
BRANCH  23  25
ATOM     24  C   LYS A   1       8.389  -1.593  22.408  0.00  0.00    +0.230 C 
ATOM     25  N   LEU A   2       8.323  -0.844  23.559  0.00  0.00    -0.303 N 
ATOM     26  H   LEU A   2       7.413  -0.520  23.867  0.00  0.00    +0.149 HD
ATOM     27  O   LYS A   1       9.385  -2.232  22.074  0.00  0.00    -0.274 OA
BRANCH  24  28
ATOM     28  CA  LYS A   1       7.087  -1.605  21.578  0.00  0.00    +0.138 C 
BRANCH  28  29
ATOM     29  N   LYS A   1       6.003  -2.190  22.382  0.00  0.00    -0.320 NA
ATOM     30  H1  LYS A   1       5.181  -1.586  22.322  0.00  0.00    +0.119 HD
ATOM     31  H2  LYS A   1       5.710  -3.063  21.935  0.00  0.00    +0.119 HD
ENDBRANCH  28  29
BRANCH  28  32
ATOM     32  CB  LYS A   1       6.718  -0.166  21.173  0.00  0.00    +0.028 C 
BRANCH  32  33
ATOM     33  CG  LYS A   1       7.785   0.449  20.266  0.00  0.00    +0.007 C 
BRANCH  33  34
ATOM     34  CD  LYS A   1       7.551   0.180  18.780  0.00  0.00    +0.051 C 
BRANCH  34  35
ATOM     35  CE  LYS A   1       6.209   0.786  18.386  0.00  0.00    +0.127 C 
BRANCH  35  36
ATOM     36  NZ  LYS A   1       5.345  -0.227  17.749  0.00  0.00    +0.219 N 
ATOM     37  HZ1 LYS A   1       4.716  -0.675  18.425  0.00  0.00    +0.199 HD
ATOM     38  HZ2 LYS A   1       4.741   0.263  17.066  0.00  0.00    +0.199 HD
ATOM     39  HZ3 LYS A   1       5.879  -0.953  17.259  0.00  0.00    +0.199 HD
ENDBRANCH  35  36
ENDBRANCH  34  35
ENDBRANCH  33  34
ENDBRANCH  32  33
ENDBRANCH  28  32
ENDBRANCH  24  28
ENDBRANCH  23  25
BRANCH  23  40
ATOM     40  CB  LEU A   2       9.860   0.430  25.006  0.00  0.00    +0.034 C 
BRANCH  40  41
ATOM     41  CG  LEU A   2       9.298   1.581  24.146  0.00  0.00    -0.015 C 
ATOM     42  CD2 LEU A   2      10.403   2.384  23.458  0.00  0.00    +0.007 C 
ATOM     43  CD1 LEU A   2       8.449   2.514  25.013  0.00  0.00    +0.007 C 
ENDBRANCH  40  41
ENDBRANCH  23  40
ENDBRANCH   1  23
TORSDOF 20
ENDMDL
MODEL 19
REMARK VINA RESULT:      -5.9      1.751      6.252
REMARK  Name = KLQS-mmff94.pdb
REMARK  22 active torsions:
REMARK  status: ('A' for Active; 'I' for Inactive)
REMARK    1  A    between atoms: _1  and  _2
REMARK    2  A    between atoms: _2  and  _3
REMARK    3  A    between atoms: _2  and  _5
REMARK    4  A    between atoms: _5  and  _6
REMARK    5  A    between atoms: _6  and  _7
REMARK    6  A    between atoms: _7  and  _8
REMARK    7  A    between atoms: _8  and  _9
REMARK    8  A    between atoms: _23  and  _24
REMARK    9  A    between atoms: _24  and  _25
REMARK   10  A    between atoms: _24  and  _27
REMARK   11  A    between atoms: _27  and  _28
REMARK   12  A    between atoms: _28  and  _29
REMARK   13  A    between atoms: _28  and  _30
REMARK   14  A    between atoms: _42  and  _43
REMARK   15  A    between atoms: _43  and  _44
REMARK   16  A    between atoms: _43  and  _46
REMARK   17  A    between atoms: _46  and  _47
REMARK   18  A    between atoms: _47  and  _48
REMARK   19  A    between atoms: _59  and  _60
REMARK   20  A    between atoms: _60  and  _61
REMARK   21  A    between atoms: _60  and  _63
REMARK   22  A    between atoms: _63  and  _64
REMARK                            x       y       z     vdW  Elec       q    Type
REMARK                         _______ _______ _______ _____ _____    ______ ____
ROOT
ATOM      1  C   LEU A   2       8.765  -2.056  22.083  0.00  0.00    +0.234 C 
ATOM      2  O   LEU A   2       9.995  -1.997  22.138  0.00  0.00    -0.274 OA
ATOM      3  N   GLN A   3       8.017  -1.092  21.453  0.00  0.00    -0.302 N 
ATOM      4  H   GLN A   3       7.002  -1.181  21.393  0.00  0.00    +0.150 HD
ENDROOT
BRANCH   3   5
ATOM      5  CA  GLN A   3       8.605   0.090  20.825  0.00  0.00    +0.159 C 
BRANCH   5   6
ATOM      6  C   GLN A   3       9.158   0.943  21.984  0.00  0.00    +0.234 C 
ATOM      7  N   SER A   4       8.527   0.800  23.189  0.00  0.00    -0.302 N 
ATOM      8  H   SER A   4       7.753   0.153  23.310  0.00  0.00    +0.150 HD
ATOM      9  O   GLN A   3      10.124   1.693  21.836  0.00  0.00    -0.274 OA
BRANCH   7  10
ATOM     10  CA  SER A   4       9.006   1.461  24.406  0.00  0.00    +0.161 C 
BRANCH  10  11
ATOM     11  C   SER A   4      10.005   0.523  25.069  0.00  0.00    +0.247 C 
ATOM     12  O   SER A   4       9.804  -0.689  25.170  0.00  0.00    -0.299 OA
ENDBRANCH  10  11
BRANCH  10  13
ATOM     13  CB  SER A   4       7.885   1.814  25.386  0.00  0.00    +0.185 C 
BRANCH  13  14
ATOM     14  OG  SER A   4       8.013   1.070  26.596  0.00  0.00    -0.393 OA
ATOM     15  H   SER A   4       7.244   1.296  27.151  0.00  0.00    +0.209 HD
ENDBRANCH  13  14
ENDBRANCH  10  13
ENDBRANCH   7  10
ENDBRANCH   5   6
BRANCH   5  16
ATOM     16  CB  GLN A   3       7.549   0.851  20.006  0.00  0.00    +0.041 C 
BRANCH  16  17
ATOM     17  CG  GLN A   3       6.274   0.042  19.763  0.00  0.00    +0.098 C 
BRANCH  17  18
ATOM     18  CD  GLN A   3       5.721   0.325  18.378  0.00  0.00    +0.211 C 
ATOM     19  NE2 GLN A   3       5.034   1.496  18.266  0.00  0.00    -0.329 N 
ATOM     20 HE21 GLN A   3       4.680   1.777  17.361  0.00  0.00    +0.145 HD
ATOM     21 HE22 GLN A   3       5.065   2.212  18.984  0.00  0.00    +0.145 HD
ATOM     22  OE1 GLN A   3       5.814  -0.455  17.428  0.00  0.00    -0.276 OA
ENDBRANCH  17  18
ENDBRANCH  16  17
ENDBRANCH   5  16
ENDBRANCH   3   5
BRANCH   1  23
ATOM     23  CA  LEU A   2       7.947  -3.222  22.693  0.00  0.00    +0.159 C 
BRANCH  23  25
ATOM     24  C   LYS A   1       6.819  -2.047  24.558  0.00  0.00    +0.230 C 
ATOM     25  N   LEU A   2       7.770  -2.936  24.115  0.00  0.00    -0.303 N 
ATOM     26  H   LEU A   2       8.075  -3.666  24.750  0.00  0.00    +0.149 HD
ATOM     27  O   LYS A   1       6.209  -1.284  23.811  0.00  0.00    -0.274 OA
BRANCH  24  28
ATOM     28  CA  LYS A   1       6.540  -2.112  26.075  0.00  0.00    +0.138 C 
BRANCH  28  29
ATOM     29  N   LYS A   1       5.701  -0.968  26.463  0.00  0.00    -0.320 NA
ATOM     30  H1  LYS A   1       6.144  -0.479  27.243  0.00  0.00    +0.119 HD
ATOM     31  H2  LYS A   1       5.714  -0.289  25.697  0.00  0.00    +0.119 HD
ENDBRANCH  28  29
BRANCH  28  32
ATOM     32  CB  LYS A   1       5.816  -3.428  26.413  0.00  0.00    +0.028 C 
BRANCH  32  33
ATOM     33  CG  LYS A   1       6.675  -4.323  27.309  0.00  0.00    +0.007 C 
BRANCH  33  34
ATOM     34  CD  LYS A   1       7.469  -5.377  26.538  0.00  0.00    +0.051 C 
BRANCH  34  35
ATOM     35  CE  LYS A   1       8.937  -4.968  26.537  0.00  0.00    +0.127 C 
BRANCH  35  36
ATOM     36  NZ  LYS A   1       9.699  -5.754  25.548  0.00  0.00    +0.219 N 
ATOM     37  HZ1 LYS A   1       9.632  -6.763  25.726  0.00  0.00    +0.199 HD
ATOM     38  HZ2 LYS A   1       9.268  -5.591  24.620  0.00  0.00    +0.199 HD
ATOM     39  HZ3 LYS A   1      10.689  -5.488  25.505  0.00  0.00    +0.199 HD
ENDBRANCH  35  36
ENDBRANCH  34  35
ENDBRANCH  33  34
ENDBRANCH  32  33
ENDBRANCH  28  32
ENDBRANCH  24  28
ENDBRANCH  23  25
BRANCH  23  40
ATOM     40  CB  LEU A   2       6.590  -3.379  21.997  0.00  0.00    +0.034 C 
BRANCH  40  41
ATOM     41  CG  LEU A   2       6.060  -4.828  21.982  0.00  0.00    -0.015 C 
ATOM     42  CD2 LEU A   2       5.033  -5.082  23.088  0.00  0.00    +0.007 C 
ATOM     43  CD1 LEU A   2       7.225  -5.811  22.128  0.00  0.00    +0.007 C 
ENDBRANCH  40  41
ENDBRANCH  23  40
ENDBRANCH   1  23
TORSDOF 20
ENDMDL
MODEL 20
REMARK VINA RESULT:      -5.9      2.153      6.398
REMARK  Name = KLQS-mmff94.pdb
REMARK  22 active torsions:
REMARK  status: ('A' for Active; 'I' for Inactive)
REMARK    1  A    between atoms: _1  and  _2
REMARK    2  A    between atoms: _2  and  _3
REMARK    3  A    between atoms: _2  and  _5
REMARK    4  A    between atoms: _5  and  _6
REMARK    5  A    between atoms: _6  and  _7
REMARK    6  A    between atoms: _7  and  _8
REMARK    7  A    between atoms: _8  and  _9
REMARK    8  A    between atoms: _23  and  _24
REMARK    9  A    between atoms: _24  and  _25
REMARK   10  A    between atoms: _24  and  _27
REMARK   11  A    between atoms: _27  and  _28
REMARK   12  A    between atoms: _28  and  _29
REMARK   13  A    between atoms: _28  and  _30
REMARK   14  A    between atoms: _42  and  _43
REMARK   15  A    between atoms: _43  and  _44
REMARK   16  A    between atoms: _43  and  _46
REMARK   17  A    between atoms: _46  and  _47
REMARK   18  A    between atoms: _47  and  _48
REMARK   19  A    between atoms: _59  and  _60
REMARK   20  A    between atoms: _60  and  _61
REMARK   21  A    between atoms: _60  and  _63
REMARK   22  A    between atoms: _63  and  _64
REMARK                            x       y       z     vdW  Elec       q    Type
REMARK                         _______ _______ _______ _____ _____    ______ ____
ROOT
ATOM      1  C   LEU A   2       8.257  -1.402  22.180  0.00  0.00    +0.234 C 
ATOM      2  O   LEU A   2       9.391  -1.210  21.734  0.00  0.00    -0.274 OA
ATOM      3  N   GLN A   3       7.916  -1.072  23.468  0.00  0.00    -0.302 N 
ATOM      4  H   GLN A   3       6.962  -1.209  23.804  0.00  0.00    +0.150 HD
ENDROOT
BRANCH   3   5
ATOM      5  CA  GLN A   3       8.863  -0.498  24.423  0.00  0.00    +0.159 C 
BRANCH   5   6
ATOM      6  C   GLN A   3       8.864  -1.455  25.632  0.00  0.00    +0.234 C 
ATOM      7  N   SER A   4       8.710  -2.784  25.345  0.00  0.00    -0.302 N 
ATOM      8  H   SER A   4       8.622  -3.114  24.389  0.00  0.00    +0.150 HD
ATOM      9  O   GLN A   3       9.015  -1.047  26.784  0.00  0.00    -0.274 OA
BRANCH   7  10
ATOM     10  CA  SER A   4       8.800  -3.821  26.376  0.00  0.00    +0.161 C 
BRANCH  10  11
ATOM     11  C   SER A   4       9.620  -4.965  25.800  0.00  0.00    +0.247 C 
ATOM     12  O   SER A   4       9.450  -5.386  24.653  0.00  0.00    -0.299 OA
ENDBRANCH  10  11
BRANCH  10  13
ATOM     13  CB  SER A   4       7.435  -4.334  26.842  0.00  0.00    +0.185 C 
BRANCH  13  14
ATOM     14  OG  SER A   4       7.333  -5.745  26.663  0.00  0.00    -0.393 OA
ATOM     15  H   SER A   4       6.907  -5.892  25.799  0.00  0.00    +0.209 HD
ENDBRANCH  13  14
ENDBRANCH  10  13
ENDBRANCH   7  10
ENDBRANCH   5   6
BRANCH   5  16
ATOM     16  CB  GLN A   3       8.438   0.926  24.819  0.00  0.00    +0.041 C 
BRANCH  16  17
ATOM     17  CG  GLN A   3       8.423   1.902  23.642  0.00  0.00    +0.098 C 
BRANCH  17  18
ATOM     18  CD  GLN A   3       9.824   2.087  23.087  0.00  0.00    +0.211 C 
ATOM     19  NE2 GLN A   3       9.925   1.948  21.736  0.00  0.00    -0.329 N 
ATOM     20 HE21 GLN A   3      10.818   2.108  21.287  0.00  0.00    +0.145 HD
ATOM     21 HE22 GLN A   3       9.110   1.929  21.131  0.00  0.00    +0.145 HD
ATOM     22  OE1 GLN A   3      10.820   2.282  23.786  0.00  0.00    -0.276 OA
ENDBRANCH  17  18
ENDBRANCH  16  17
ENDBRANCH   5  16
ENDBRANCH   3   5
BRANCH   1  23
ATOM     23  CA  LEU A   2       7.109  -2.007  21.335  0.00  0.00    +0.159 C 
BRANCH  23  25
ATOM     24  C   LYS A   1       5.843  -4.077  21.824  0.00  0.00    +0.230 C 
ATOM     25  N   LEU A   2       6.307  -2.846  22.223  0.00  0.00    -0.303 N 
ATOM     26  H   LEU A   2       6.435  -2.682  23.216  0.00  0.00    +0.149 HD
ATOM     27  O   LYS A   1       5.877  -4.467  20.658  0.00  0.00    -0.274 OA
BRANCH  24  28
ATOM     28  CA  LYS A   1       5.310  -4.962  22.972  0.00  0.00    +0.138 C 
BRANCH  28  29
ATOM     29  N   LYS A   1       6.444  -5.563  23.689  0.00  0.00    -0.320 NA
ATOM     30  H1  LYS A   1       6.222  -5.609  24.685  0.00  0.00    +0.119 HD
ATOM     31  H2  LYS A   1       6.519  -6.544  23.401  0.00  0.00    +0.119 HD
ENDBRANCH  28  29
BRANCH  28  32
ATOM     32  CB  LYS A   1       4.476  -4.104  23.941  0.00  0.00    +0.028 C 
BRANCH  32  33
ATOM     33  CG  LYS A   1       3.420  -4.945  24.663  0.00  0.00    +0.007 C 
BRANCH  33  34
ATOM     34  CD  LYS A   1       3.812  -5.320  26.092  0.00  0.00    +0.051 C 
BRANCH  34  35
ATOM     35  CE  LYS A   1       3.990  -6.832  26.162  0.00  0.00    +0.127 C 
BRANCH  35  36
ATOM     36  NZ  LYS A   1       4.898  -7.201  27.265  0.00  0.00    +0.219 N 
ATOM     37  HZ1 LYS A   1       5.560  -6.449  27.486  0.00  0.00    +0.199 HD
ATOM     38  HZ2 LYS A   1       4.319  -7.342  28.112  0.00  0.00    +0.199 HD
ATOM     39  HZ3 LYS A   1       5.423  -8.062  27.076  0.00  0.00    +0.199 HD
ENDBRANCH  35  36
ENDBRANCH  34  35
ENDBRANCH  33  34
ENDBRANCH  32  33
ENDBRANCH  28  32
ENDBRANCH  24  28
ENDBRANCH  23  25
BRANCH  23  40
ATOM     40  CB  LEU A   2       6.247  -0.912  20.695  0.00  0.00    +0.034 C 
BRANCH  40  41
ATOM     41  CG  LEU A   2       7.039   0.349  20.289  0.00  0.00    -0.015 C 
ATOM     42  CD2 LEU A   2       6.293   1.639  20.635  0.00  0.00    +0.007 C 
ATOM     43  CD1 LEU A   2       7.340   0.315  18.789  0.00  0.00    +0.007 C 
ENDBRANCH  40  41
ENDBRANCH  23  40
ENDBRANCH   1  23
TORSDOF 20
ENDMDL
