REMARK  Name = KLQS-mmff94.pdb
REMARK  22 active torsions:
REMARK  status: ('A' for Active; 'I' for Inactive)
REMARK    1  A    between atoms: _1  and  _2
REMARK    2  A    between atoms: _2  and  _3
REMARK    3  A    between atoms: _2  and  _5
REMARK    4  A    between atoms: _5  and  _6
REMARK    5  A    between atoms: _6  and  _7
REMARK    6  A    between atoms: _7  and  _8
REMARK    7  A    between atoms: _8  and  _9
REMARK    8  A    between atoms: _23  and  _24
REMARK    9  A    between atoms: _24  and  _25
REMARK   10  A    between atoms: _24  and  _27
REMARK   11  A    between atoms: _27  and  _28
REMARK   12  A    between atoms: _28  and  _29
REMARK   13  A    between atoms: _28  and  _30
REMARK   14  A    between atoms: _42  and  _43
REMARK   15  A    between atoms: _43  and  _44
REMARK   16  A    between atoms: _43  and  _46
REMARK   17  A    between atoms: _46  and  _47
REMARK   18  A    between atoms: _47  and  _48
REMARK   19  A    between atoms: _59  and  _60
REMARK   20  A    between atoms: _60  and  _61
REMARK   21  A    between atoms: _60  and  _63
REMARK   22  A    between atoms: _63  and  _64
REMARK                            x       y       z     vdW  Elec       q    Type
REMARK                         _______ _______ _______ _____ _____    ______ ____
ROOT
ATOM      1  C   LEU A   2       4.050  -0.092  -1.875  0.00  0.00    +0.234 C 
ATOM      2  O   LEU A   2       3.223   0.806  -2.048  0.00  0.00    -0.274 OA
ATOM      3  N   GLN A   3       5.347   0.173  -1.510  0.00  0.00    -0.302 N 
ATOM      4  H   GLN A   3       6.004  -0.589  -1.340  0.00  0.00    +0.150 HD
ENDROOT
BRANCH   3   5
ATOM      5  CA  GLN A   3       5.863   1.529  -1.326  0.00  0.00    +0.159 C 
BRANCH   5   6
ATOM      6  C   GLN A   3       7.398   1.400  -1.389  0.00  0.00    +0.234 C 
ATOM      7  N   SER A   4       8.087   2.552  -1.654  0.00  0.00    -0.302 N 
ATOM      8  H   SER A   4       7.609   3.440  -1.780  0.00  0.00    +0.150 HD
ATOM      9  O   GLN A   3       7.969   0.327  -1.193  0.00  0.00    -0.274 OA
BRANCH   7  10
ATOM     10  CA  SER A   4       9.551   2.609  -1.637  0.00  0.00    +0.161 C 
BRANCH  10  11
ATOM     11  C   SER A   4       9.948   4.073  -1.522  0.00  0.00    +0.247 C 
ATOM     12  O   SER A   4       9.158   4.943  -1.148  0.00  0.00    -0.299 OA
ENDBRANCH  10  11
BRANCH  10  13
ATOM     13  CB  SER A   4      10.197   1.984  -2.876  0.00  0.00    +0.185 C 
BRANCH  13  14
ATOM     14  OG  SER A   4       9.713   2.599  -4.068  0.00  0.00    -0.393 OA
ATOM     15  H   SER A   4       8.831   2.224  -4.244  0.00  0.00    +0.209 HD
ENDBRANCH  13  14
ENDBRANCH  10  13
ENDBRANCH   7  10
ENDBRANCH   5   6
BRANCH   5  16
ATOM     16  CB  GLN A   3       5.391   2.111   0.017  0.00  0.00    +0.041 C 
BRANCH  16  17
ATOM     17  CG  GLN A   3       5.220   3.630  -0.009  0.00  0.00    +0.098 C 
BRANCH  17  18
ATOM     18  CD  GLN A   3       4.491   4.104   1.236  0.00  0.00    +0.211 C 
ATOM     19  NE2 GLN A   3       5.302   4.440   2.278  0.00  0.00    -0.329 N 
ATOM     20 HE21 GLN A   3       4.891   4.813   3.124  0.00  0.00    +0.145 HD
ATOM     21 HE22 GLN A   3       6.303   4.562   2.168  0.00  0.00    +0.145 HD
ATOM     22  OE1 GLN A   3       3.264   4.130   1.346  0.00  0.00    -0.276 OA
ENDBRANCH  17  18
ENDBRANCH  16  17
ENDBRANCH   5  16
ENDBRANCH   3   5
BRANCH   1  23
ATOM     23  CA  LEU A   2       3.709  -1.595  -2.027  0.00  0.00    +0.159 C 
BRANCH  23  25
ATOM     24  C   LYS A   1       1.436  -2.182  -1.241  0.00  0.00    +0.230 C 
ATOM     25  N   LEU A   2       2.265  -1.699  -2.226  0.00  0.00    -0.303 N 
ATOM     26  H   LEU A   2       1.871  -1.068  -2.916  0.00  0.00    +0.149 HD
ATOM     27  O   LYS A   1       1.847  -2.750  -0.231  0.00  0.00    -0.274 OA
BRANCH  24  28
ATOM     28  CA  LYS A   1      -0.066  -1.916  -1.482  0.00  0.00    +0.138 C 
BRANCH  28  29
ATOM     29  N   LYS A   1      -0.802  -3.187  -1.408  0.00  0.00    -0.320 NA
ATOM     30  H1  LYS A   1      -0.441  -3.823  -2.122  0.00  0.00    +0.119 HD
ATOM     31  H2  LYS A   1      -0.565  -3.641  -0.521  0.00  0.00    +0.119 HD
ENDBRANCH  28  29
BRANCH  28  32
ATOM     32  CB  LYS A   1      -0.597  -0.943  -0.413  0.00  0.00    +0.028 C 
BRANCH  32  33
ATOM     33  CG  LYS A   1       0.134   0.400  -0.469  0.00  0.00    +0.007 C 
BRANCH  33  34
ATOM     34  CD  LYS A   1      -0.287   1.370   0.635  0.00  0.00    +0.051 C 
BRANCH  34  35
ATOM     35  CE  LYS A   1       0.653   2.569   0.607  0.00  0.00    +0.127 C 
BRANCH  35  36
ATOM     36  NZ  LYS A   1       0.384   3.471   1.743  0.00  0.00    +0.219 N 
ATOM     37  HZ1 LYS A   1       0.406   2.975   2.641  0.00  0.00    +0.199 HD
ATOM     38  HZ2 LYS A   1       1.147   4.170   1.775  0.00  0.00    +0.199 HD
ATOM     39  HZ3 LYS A   1      -0.513   3.963   1.656  0.00  0.00    +0.199 HD
ENDBRANCH  35  36
ENDBRANCH  34  35
ENDBRANCH  33  34
ENDBRANCH  32  33
ENDBRANCH  28  32
ENDBRANCH  24  28
ENDBRANCH  23  25
BRANCH  23  40
ATOM     40  CB  LEU A   2       4.467  -2.226  -3.202  0.00  0.00    +0.034 C 
BRANCH  40  41
ATOM     41  CG  LEU A   2       4.242  -3.746  -3.345  0.00  0.00    -0.015 C 
ATOM     42  CD2 LEU A   2       4.777  -4.527  -2.143  0.00  0.00    +0.007 C 
ATOM     43  CD1 LEU A   2       4.908  -4.254  -4.626  0.00  0.00    +0.007 C 
ENDBRANCH  40  41
ENDBRANCH  23  40
ENDBRANCH   1  23
TORSDOF 20
