REMARK  Name = LHS-mmff94.pdb
REMARK  14 active torsions:
REMARK  status: ('A' for Active; 'I' for Inactive)
REMARK    1  A    between atoms: _1  and  _2
REMARK    2  A    between atoms: _2  and  _3
REMARK    3  A    between atoms: _2  and  _5
REMARK    4  A    between atoms: _5  and  _6
REMARK    5  A    between atoms: _6  and  _7
REMARK    6  A    between atoms: _6  and  _8
REMARK    7  A    between atoms: _20  and  _21
REMARK    8  A    between atoms: _21  and  _22
REMARK    9  A    between atoms: _21  and  _24
REMARK   10  A    between atoms: _24  and  _25
REMARK   11  A    between atoms: _37  and  _38
REMARK   12  A    between atoms: _38  and  _39
REMARK   13  A    between atoms: _38  and  _41
REMARK   14  A    between atoms: _41  and  _42
REMARK                            x       y       z     vdW  Elec       q    Type
REMARK                         _______ _______ _______ _____ _____    ______ ____
ROOT
ATOM      1  CA  HIS A   2       4.668   0.004  -1.113  0.00  0.00    +0.165 C 
ENDROOT
BRANCH   1   3
ATOM      2  C   LEU A   1       2.416  -0.997  -0.878  0.00  0.00    +0.230 C 
ATOM      3  N   HIS A   2       3.206   0.100  -1.121  0.00  0.00    -0.302 N 
ATOM      4  H   HIS A   2       2.806   1.031  -1.210  0.00  0.00    +0.150 HD
ATOM      5  O   LEU A   1       2.884  -2.122  -0.702  0.00  0.00    -0.274 OA
BRANCH   2   6
ATOM      6  CA  LEU A   1       0.895  -0.724  -0.881  0.00  0.00    +0.138 C 
BRANCH   6   7
ATOM      7  N   LEU A   1       0.174  -2.014  -0.889  0.00  0.00    -0.320 NA
ATOM      8  H1  LEU A   1       0.542  -2.569  -1.666  0.00  0.00    +0.119 HD
ATOM      9  H2  LEU A   1       0.480  -2.540  -0.065  0.00  0.00    +0.119 HD
ENDBRANCH   6   7
BRANCH   6  10
ATOM     10  CB  LEU A   1       0.504   0.121   0.341  0.00  0.00    +0.031 C 
BRANCH  10  11
ATOM     11  CG  LEU A   1      -1.006   0.400   0.493  0.00  0.00    -0.015 C 
ATOM     12  CD2 LEU A   1      -1.255   1.217   1.764  0.00  0.00    +0.007 C 
ATOM     13  CD1 LEU A   1      -1.587   1.133  -0.716  0.00  0.00    +0.007 C 
ENDBRANCH  10  11
ENDBRANCH   6  10
ENDBRANCH   2   6
ENDBRANCH   1   3
BRANCH   1  14
ATOM     14  C   HIS A   2       5.234   1.434  -1.036  0.00  0.00    +0.234 C 
ATOM     15  N   SER A   3       6.591   1.538  -0.834  0.00  0.00    -0.302 N 
ATOM     16  H   SER A   3       7.175   0.704  -0.987  0.00  0.00    +0.150 HD
ATOM     17  O   HIS A   2       4.505   2.424  -1.128  0.00  0.00    -0.274 OA
BRANCH  15  18
ATOM     18  CA  SER A   3       7.258   2.840  -0.866  0.00  0.00    +0.161 C 
BRANCH  18  19
ATOM     19  CB  SER A   3       8.767   2.664  -0.967  0.00  0.00    +0.247 C 
ATOM     20  OG  SER A   3       9.313   1.652  -1.401  0.00  0.00    -0.299 OA
ENDBRANCH  18  19
BRANCH  18  21
ATOM     21  C   SER A   3       6.940   3.694   0.368  0.00  0.00    +0.185 C 
BRANCH  21  22
ATOM     22  O   SER A   3       7.311   3.018   1.569  0.00  0.00    -0.393 OA
ATOM     23  H   SER A   3       6.847   2.159   1.554  0.00  0.00    +0.209 HD
ENDBRANCH  21  22
ENDBRANCH  18  21
ENDBRANCH  15  18
ENDBRANCH   1  14
BRANCH   1  24
ATOM     24  CB  HIS A   2       5.199  -0.719  -2.357  0.00  0.00    +0.088 C 
BRANCH  24  25
ATOM     25  CG  HIS A   2       6.245  -1.705  -1.987  0.00  0.00    +0.061 A 
ATOM     26  CD2 HIS A   2       6.216  -3.079  -2.082  0.00  0.00    +0.107 A 
ATOM     27  NE2 HIS A   2       7.406  -3.499  -1.560  0.00  0.00    -0.351 N 
ATOM     28  HE2 HIS A   2       7.715  -4.457  -1.463  0.00  0.00    +0.166 HD
ATOM     29  CE1 HIS A   2       8.100  -2.387  -1.175  0.00  0.00    +0.196 A 
ATOM     30  ND1 HIS A   2       7.421  -1.287  -1.408  0.00  0.00    -0.241 NA
ENDBRANCH  24  25
ENDBRANCH   1  24
TORSDOF 12
