MODEL 1
REMARK VINA RESULT:      -6.6      0.000      0.000
REMARK  Name = LHS-mmff94.pdb
REMARK  14 active torsions:
REMARK  status: ('A' for Active; 'I' for Inactive)
REMARK    1  A    between atoms: _1  and  _2
REMARK    2  A    between atoms: _2  and  _3
REMARK    3  A    between atoms: _2  and  _5
REMARK    4  A    between atoms: _5  and  _6
REMARK    5  A    between atoms: _6  and  _7
REMARK    6  A    between atoms: _6  and  _8
REMARK    7  A    between atoms: _20  and  _21
REMARK    8  A    between atoms: _21  and  _22
REMARK    9  A    between atoms: _21  and  _24
REMARK   10  A    between atoms: _24  and  _25
REMARK   11  A    between atoms: _37  and  _38
REMARK   12  A    between atoms: _38  and  _39
REMARK   13  A    between atoms: _38  and  _41
REMARK   14  A    between atoms: _41  and  _42
REMARK                            x       y       z     vdW  Elec       q    Type
REMARK                         _______ _______ _______ _____ _____    ______ ____
ROOT
ATOM      1  CA  HIS A   2       6.270  -1.482  21.062  0.00  0.00    +0.165 C 
ENDROOT
BRANCH   1   3
ATOM      2  C   LEU A   1       8.062   0.171  21.492  0.00  0.00    +0.230 C 
ATOM      3  N   HIS A   2       7.680  -1.087  21.095  0.00  0.00    -0.302 N 
ATOM      4  H   HIS A   2       8.367  -1.816  20.914  0.00  0.00    +0.150 HD
ATOM      5  O   LEU A   1       7.247   1.048  21.780  0.00  0.00    -0.274 OA
BRANCH   2   6
ATOM      6  CA  LEU A   1       9.587   0.419  21.512  0.00  0.00    +0.138 C 
BRANCH   6   7
ATOM      7  N   LEU A   1       9.838   1.869  21.649  0.00  0.00    -0.320 NA
ATOM      8  H1  LEU A   1       8.929   2.339  21.671  0.00  0.00    +0.119 HD
ATOM      9  H2  LEU A   1      10.203   2.027  22.593  0.00  0.00    +0.119 HD
ENDBRANCH   6   7
BRANCH   6  10
ATOM     10  CB  LEU A   1      10.238  -0.367  22.660  0.00  0.00    +0.031 C 
BRANCH  10  11
ATOM     11  CG  LEU A   1       9.855   0.102  24.079  0.00  0.00    -0.015 C 
ATOM     12  CD2 LEU A   1       9.233  -1.062  24.857  0.00  0.00    +0.007 C 
ATOM     13  CD1 LEU A   1      11.050   0.661  24.851  0.00  0.00    +0.007 C 
ENDBRANCH  10  11
ENDBRANCH   6  10
ENDBRANCH   2   6
ENDBRANCH   1   3
BRANCH   1  14
ATOM     14  C   HIS A   2       6.144  -2.843  21.770  0.00  0.00    +0.234 C 
ATOM     15  N   SER A   3       7.309  -3.374  22.273  0.00  0.00    -0.302 N 
ATOM     16  H   SER A   3       8.127  -2.757  22.372  0.00  0.00    +0.150 HD
ATOM     17  O   HIS A   2       5.063  -3.429  21.858  0.00  0.00    -0.274 OA
BRANCH  15  18
ATOM     18  CA  SER A   3       7.294  -4.601  23.071  0.00  0.00    +0.161 C 
BRANCH  18  19
ATOM     19  CB  SER A   3       8.411  -4.579  24.105  0.00  0.00    +0.247 C 
ATOM     20  OG  SER A   3       9.169  -5.523  24.317  0.00  0.00    -0.299 OA
ENDBRANCH  18  19
BRANCH  18  21
ATOM     21  C   SER A   3       7.438  -5.863  22.212  0.00  0.00    +0.185 C 
BRANCH  21  22
ATOM     22  O   SER A   3       6.160  -6.383  21.845  0.00  0.00    -0.393 OA
ATOM     23  H   SER A   3       6.324  -7.265  21.460  0.00  0.00    +0.209 HD
ENDBRANCH  21  22
ENDBRANCH  18  21
ENDBRANCH  15  18
ENDBRANCH   1  14
BRANCH   1  24
ATOM     24  CB  HIS A   2       5.736  -1.570  19.627  0.00  0.00    +0.088 C 
BRANCH  24  25
ATOM     25  CG  HIS A   2       5.706  -0.228  18.993  0.00  0.00    +0.061 A 
ATOM     26  CD2 HIS A   2       4.822   0.809  19.195  0.00  0.00    +0.107 A 
ATOM     27  NE2 HIS A   2       5.213   1.787  18.326  0.00  0.00    -0.351 N 
ATOM     28  HE2 HIS A   2       4.775   2.690  18.200  0.00  0.00    +0.166 HD
ATOM     29  CE1 HIS A   2       6.298   1.317  17.641  0.00  0.00    +0.196 A 
ATOM     30  ND1 HIS A   2       6.614   0.097  18.012  0.00  0.00    -0.241 NA
ENDBRANCH  24  25
ENDBRANCH   1  24
TORSDOF 12
ENDMDL
MODEL 2
REMARK VINA RESULT:      -6.4      2.063      6.287
REMARK  Name = LHS-mmff94.pdb
REMARK  14 active torsions:
REMARK  status: ('A' for Active; 'I' for Inactive)
REMARK    1  A    between atoms: _1  and  _2
REMARK    2  A    between atoms: _2  and  _3
REMARK    3  A    between atoms: _2  and  _5
REMARK    4  A    between atoms: _5  and  _6
REMARK    5  A    between atoms: _6  and  _7
REMARK    6  A    between atoms: _6  and  _8
REMARK    7  A    between atoms: _20  and  _21
REMARK    8  A    between atoms: _21  and  _22
REMARK    9  A    between atoms: _21  and  _24
REMARK   10  A    between atoms: _24  and  _25
REMARK   11  A    between atoms: _37  and  _38
REMARK   12  A    between atoms: _38  and  _39
REMARK   13  A    between atoms: _38  and  _41
REMARK   14  A    between atoms: _41  and  _42
REMARK                            x       y       z     vdW  Elec       q    Type
REMARK                         _______ _______ _______ _____ _____    ______ ____
ROOT
ATOM      1  CA  HIS A   2       7.846  -0.931  21.905  0.00  0.00    +0.165 C 
ENDROOT
BRANCH   1   3
ATOM      2  C   LEU A   1       7.974  -2.811  23.511  0.00  0.00    +0.230 C 
ATOM      3  N   HIS A   2       8.150  -2.325  22.238  0.00  0.00    -0.302 N 
ATOM      4  H   HIS A   2       8.395  -2.941  21.466  0.00  0.00    +0.150 HD
ATOM      5  O   LEU A   1       7.614  -2.097  24.447  0.00  0.00    -0.274 OA
BRANCH   2   6
ATOM      6  CA  LEU A   1       8.299  -4.311  23.691  0.00  0.00    +0.138 C 
BRANCH   6   7
ATOM      7  N   LEU A   1       9.432  -4.449  24.630  0.00  0.00    -0.320 NA
ATOM      8  H1  LEU A   1       9.094  -4.198  25.562  0.00  0.00    +0.119 HD
ATOM      9  H2  LEU A   1       9.635  -5.449  24.719  0.00  0.00    +0.119 HD
ENDBRANCH   6   7
BRANCH   6  10
ATOM     10  CB  LEU A   1       7.063  -5.066  24.202  0.00  0.00    +0.031 C 
BRANCH  10  11
ATOM     11  CG  LEU A   1       6.176  -5.695  23.108  0.00  0.00    -0.015 C 
ATOM     12  CD2 LEU A   1       4.971  -4.790  22.835  0.00  0.00    +0.007 C 
ATOM     13  CD1 LEU A   1       6.943  -5.943  21.809  0.00  0.00    +0.007 C 
ENDBRANCH  10  11
ENDBRANCH   6  10
ENDBRANCH   2   6
ENDBRANCH   1   3
BRANCH   1  14
ATOM     14  C   HIS A   2       6.689  -0.930  20.889  0.00  0.00    +0.234 C 
ATOM     15  N   SER A   3       6.408   0.277  20.293  0.00  0.00    -0.302 N 
ATOM     16  H   SER A   3       7.106   1.031  20.359  0.00  0.00    +0.150 HD
ATOM     17  O   HIS A   2       6.042  -1.951  20.645  0.00  0.00    -0.274 OA
BRANCH  15  18
ATOM     18  CA  SER A   3       5.413   0.374  19.224  0.00  0.00    +0.161 C 
BRANCH  18  19
ATOM     19  CB  SER A   3       6.090   0.336  17.861  0.00  0.00    +0.247 C 
ATOM     20  OG  SER A   3       6.344   1.335  17.191  0.00  0.00    -0.299 OA
ENDBRANCH  18  19
BRANCH  18  21
ATOM     21  C   SER A   3       4.568   1.651  19.322  0.00  0.00    +0.185 C 
BRANCH  21  22
ATOM     22  O   SER A   3       4.831   2.349  20.538  0.00  0.00    -0.393 OA
ATOM     23  H   SER A   3       4.056   2.198  21.113  0.00  0.00    +0.209 HD
ENDBRANCH  21  22
ENDBRANCH  18  21
ENDBRANCH  15  18
ENDBRANCH   1  14
BRANCH   1  24
ATOM     24  CB  HIS A   2       9.068  -0.203  21.331  0.00  0.00    +0.088 C 
BRANCH  24  25
ATOM     25  CG  HIS A   2       9.750   0.591  22.383  0.00  0.00    +0.061 A 
ATOM     26  CD2 HIS A   2      10.011   1.943  22.419  0.00  0.00    +0.107 A 
ATOM     27  NE2 HIS A   2      10.705   2.143  23.579  0.00  0.00    -0.351 N 
ATOM     28  HE2 HIS A   2      11.067   3.024  23.918  0.00  0.00    +0.166 HD
ATOM     29  CE1 HIS A   2      10.836   0.929  24.192  0.00  0.00    +0.196 A 
ATOM     30  ND1 HIS A   2      10.281  -0.032  23.489  0.00  0.00    -0.241 NA
ENDBRANCH  24  25
ENDBRANCH   1  24
TORSDOF 12
ENDMDL
MODEL 3
REMARK VINA RESULT:      -6.3      2.460      6.034
REMARK  Name = LHS-mmff94.pdb
REMARK  14 active torsions:
REMARK  status: ('A' for Active; 'I' for Inactive)
REMARK    1  A    between atoms: _1  and  _2
REMARK    2  A    between atoms: _2  and  _3
REMARK    3  A    between atoms: _2  and  _5
REMARK    4  A    between atoms: _5  and  _6
REMARK    5  A    between atoms: _6  and  _7
REMARK    6  A    between atoms: _6  and  _8
REMARK    7  A    between atoms: _20  and  _21
REMARK    8  A    between atoms: _21  and  _22
REMARK    9  A    between atoms: _21  and  _24
REMARK   10  A    between atoms: _24  and  _25
REMARK   11  A    between atoms: _37  and  _38
REMARK   12  A    between atoms: _38  and  _39
REMARK   13  A    between atoms: _38  and  _41
REMARK   14  A    between atoms: _41  and  _42
REMARK                            x       y       z     vdW  Elec       q    Type
REMARK                         _______ _______ _______ _____ _____    ______ ____
ROOT
ATOM      1  CA  HIS A   2       7.480  -2.642  22.870  0.00  0.00    +0.165 C 
ENDROOT
BRANCH   1   3
ATOM      2  C   LEU A   1       9.129  -1.151  23.959  0.00  0.00    +0.230 C 
ATOM      3  N   HIS A   2       7.829  -1.562  23.797  0.00  0.00    -0.302 N 
ATOM      4  H   HIS A   2       7.057  -1.063  24.233  0.00  0.00    +0.150 HD
ATOM      5  O   LEU A   1      10.072  -1.700  23.388  0.00  0.00    -0.274 OA
BRANCH   2   6
ATOM      6  CA  LEU A   1       9.328   0.025  24.942  0.00  0.00    +0.138 C 
BRANCH   6   7
ATOM      7  N   LEU A   1       9.399  -0.505  26.319  0.00  0.00    -0.320 NA
ATOM      8  H1  LEU A   1      10.123  -1.229  26.335  0.00  0.00    +0.119 HD
ATOM      9  H2  LEU A   1       9.797   0.232  26.910  0.00  0.00    +0.119 HD
ENDBRANCH   6   7
BRANCH   6  10
ATOM     10  CB  LEU A   1      10.600   0.808  24.583  0.00  0.00    +0.031 C 
BRANCH  10  11
ATOM     11  CG  LEU A   1      10.366   2.136  23.833  0.00  0.00    -0.015 C 
ATOM     12  CD2 LEU A   1      10.157   1.856  22.342  0.00  0.00    +0.007 C 
ATOM     13  CD1 LEU A   1       9.173   2.915  24.386  0.00  0.00    +0.007 C 
ENDBRANCH  10  11
ENDBRANCH   6  10
ENDBRANCH   2   6
ENDBRANCH   1   3
BRANCH   1  14
ATOM     14  C   HIS A   2       6.681  -2.026  21.707  0.00  0.00    +0.234 C 
ATOM     15  N   SER A   3       7.023  -0.742  21.350  0.00  0.00    -0.302 N 
ATOM     16  H   SER A   3       7.918  -0.362  21.688  0.00  0.00    +0.150 HD
ATOM     17  O   HIS A   2       5.772  -2.644  21.148  0.00  0.00    -0.274 OA
BRANCH  15  18
ATOM     18  CA  SER A   3       6.418  -0.100  20.183  0.00  0.00    +0.161 C 
BRANCH  18  19
ATOM     19  CB  SER A   3       7.378  -0.127  19.001  0.00  0.00    +0.247 C 
ATOM     20  OG  SER A   3       7.285   0.613  18.024  0.00  0.00    -0.299 OA
ENDBRANCH  18  19
BRANCH  18  21
ATOM     21  C   SER A   3       6.010   1.353  20.457  0.00  0.00    +0.185 C 
BRANCH  21  22
ATOM     22  O   SER A   3       4.998   1.782  19.547  0.00  0.00    -0.393 OA
ATOM     23  H   SER A   3       5.395   2.499  19.015  0.00  0.00    +0.209 HD
ENDBRANCH  21  22
ENDBRANCH  18  21
ENDBRANCH  15  18
ENDBRANCH   1  14
BRANCH   1  24
ATOM     24  CB  HIS A   2       6.666  -3.745  23.559  0.00  0.00    +0.088 C 
BRANCH  24  25
ATOM     25  CG  HIS A   2       7.514  -4.512  24.506  0.00  0.00    +0.061 A 
ATOM     26  CD2 HIS A   2       7.175  -5.070  25.718  0.00  0.00    +0.107 A 
ATOM     27  NE2 HIS A   2       8.332  -5.612  26.199  0.00  0.00    -0.351 N 
ATOM     28  HE2 HIS A   2       8.449  -6.095  27.080  0.00  0.00    +0.166 HD
ATOM     29  CE1 HIS A   2       9.312  -5.368  25.279  0.00  0.00    +0.196 A 
ATOM     30  ND1 HIS A   2       8.853  -4.694  24.249  0.00  0.00    -0.241 NA
ENDBRANCH  24  25
ENDBRANCH   1  24
TORSDOF 12
ENDMDL
MODEL 4
REMARK VINA RESULT:      -6.3      2.645      5.642
REMARK  Name = LHS-mmff94.pdb
REMARK  14 active torsions:
REMARK  status: ('A' for Active; 'I' for Inactive)
REMARK    1  A    between atoms: _1  and  _2
REMARK    2  A    between atoms: _2  and  _3
REMARK    3  A    between atoms: _2  and  _5
REMARK    4  A    between atoms: _5  and  _6
REMARK    5  A    between atoms: _6  and  _7
REMARK    6  A    between atoms: _6  and  _8
REMARK    7  A    between atoms: _20  and  _21
REMARK    8  A    between atoms: _21  and  _22
REMARK    9  A    between atoms: _21  and  _24
REMARK   10  A    between atoms: _24  and  _25
REMARK   11  A    between atoms: _37  and  _38
REMARK   12  A    between atoms: _38  and  _39
REMARK   13  A    between atoms: _38  and  _41
REMARK   14  A    between atoms: _41  and  _42
REMARK                            x       y       z     vdW  Elec       q    Type
REMARK                         _______ _______ _______ _____ _____    ______ ____
ROOT
ATOM      1  CA  HIS A   2       8.520  -2.539  22.834  0.00  0.00    +0.165 C 
ENDROOT
BRANCH   1   3
ATOM      2  C   LEU A   1       8.443  -4.670  24.091  0.00  0.00    +0.230 C 
ATOM      3  N   HIS A   2       8.810  -3.348  24.020  0.00  0.00    -0.302 N 
ATOM      4  H   HIS A   2       9.384  -2.919  24.742  0.00  0.00    +0.150 HD
ATOM      5  O   LEU A   1       7.803  -5.227  23.199  0.00  0.00    -0.274 OA
BRANCH   2   6
ATOM      6  CA  LEU A   1       8.855  -5.397  25.391  0.00  0.00    +0.138 C 
BRANCH   6   7
ATOM      7  N   LEU A   1      10.328  -5.518  25.428  0.00  0.00    -0.320 NA
ATOM      8  H1  LEU A   1      10.667  -5.459  24.465  0.00  0.00    +0.119 HD
ATOM      9  H2  LEU A   1      10.694  -4.662  25.855  0.00  0.00    +0.119 HD
ENDBRANCH   6   7
BRANCH   6  10
ATOM     10  CB  LEU A   1       8.332  -4.632  26.617  0.00  0.00    +0.031 C 
BRANCH  10  11
ATOM     11  CG  LEU A   1       6.796  -4.597  26.765  0.00  0.00    -0.015 C 
ATOM     12  CD2 LEU A   1       6.371  -5.475  27.945  0.00  0.00    +0.007 C 
ATOM     13  CD1 LEU A   1       6.263  -3.178  26.957  0.00  0.00    +0.007 C 
ENDBRANCH  10  11
ENDBRANCH   6  10
ENDBRANCH   2   6
ENDBRANCH   1   3
BRANCH   1  14
ATOM     14  C   HIS A   2       9.669  -1.528  22.661  0.00  0.00    +0.234 C 
ATOM     15  N   SER A   3       9.369  -0.216  22.947  0.00  0.00    -0.302 N 
ATOM     16  H   SER A   3       8.510  -0.014  23.477  0.00  0.00    +0.150 HD
ATOM     17  O   HIS A   2      10.784  -1.877  22.266  0.00  0.00    -0.274 OA
BRANCH  15  18
ATOM     18  CA  SER A   3      10.410   0.812  22.937  0.00  0.00    +0.161 C 
BRANCH  18  19
ATOM     19  CB  SER A   3      10.853   1.137  24.357  0.00  0.00    +0.247 C 
ATOM     20  OG  SER A   3      10.767   0.353  25.300  0.00  0.00    -0.299 OA
ENDBRANCH  18  19
BRANCH  18  21
ATOM     21  C   SER A   3       9.952   2.106  22.252  0.00  0.00    +0.185 C 
BRANCH  21  22
ATOM     22  O   SER A   3       9.086   1.826  21.153  0.00  0.00    -0.393 OA
ATOM     23  H   SER A   3       9.277   0.907  20.882  0.00  0.00    +0.209 HD
ENDBRANCH  21  22
ENDBRANCH  18  21
ENDBRANCH  15  18
ENDBRANCH   1  14
BRANCH   1  24
ATOM     24  CB  HIS A   2       7.176  -1.811  22.954  0.00  0.00    +0.088 C 
BRANCH  24  25
ATOM     25  CG  HIS A   2       6.598  -1.546  21.613  0.00  0.00    +0.061 A 
ATOM     26  CD2 HIS A   2       5.798  -2.356  20.837  0.00  0.00    +0.107 A 
ATOM     27  NE2 HIS A   2       5.595  -1.657  19.681  0.00  0.00    -0.351 N 
ATOM     28  HE2 HIS A   2       5.058  -1.962  18.880  0.00  0.00    +0.166 HD
ATOM     29  CE1 HIS A   2       6.266  -0.472  19.796  0.00  0.00    +0.196 A 
ATOM     30  ND1 HIS A   2       6.892  -0.379  20.946  0.00  0.00    -0.241 NA
ENDBRANCH  24  25
ENDBRANCH   1  24
TORSDOF 12
ENDMDL
MODEL 5
REMARK VINA RESULT:      -6.2      2.197      5.545
REMARK  Name = LHS-mmff94.pdb
REMARK  14 active torsions:
REMARK  status: ('A' for Active; 'I' for Inactive)
REMARK    1  A    between atoms: _1  and  _2
REMARK    2  A    between atoms: _2  and  _3
REMARK    3  A    between atoms: _2  and  _5
REMARK    4  A    between atoms: _5  and  _6
REMARK    5  A    between atoms: _6  and  _7
REMARK    6  A    between atoms: _6  and  _8
REMARK    7  A    between atoms: _20  and  _21
REMARK    8  A    between atoms: _21  and  _22
REMARK    9  A    between atoms: _21  and  _24
REMARK   10  A    between atoms: _24  and  _25
REMARK   11  A    between atoms: _37  and  _38
REMARK   12  A    between atoms: _38  and  _39
REMARK   13  A    between atoms: _38  and  _41
REMARK   14  A    between atoms: _41  and  _42
REMARK                            x       y       z     vdW  Elec       q    Type
REMARK                         _______ _______ _______ _____ _____    ______ ____
ROOT
ATOM      1  CA  HIS A   2       6.582  -2.313  21.603  0.00  0.00    +0.165 C 
ENDROOT
BRANCH   1   3
ATOM      2  C   LEU A   1       8.453  -1.399  22.943  0.00  0.00    +0.230 C 
ATOM      3  N   HIS A   2       7.255  -1.212  22.297  0.00  0.00    -0.302 N 
ATOM      4  H   HIS A   2       6.851  -0.284  22.190  0.00  0.00    +0.150 HD
ATOM      5  O   LEU A   1       8.992  -2.503  23.027  0.00  0.00    -0.274 OA
BRANCH   2   6
ATOM      6  CA  LEU A   1       9.054  -0.132  23.591  0.00  0.00    +0.138 C 
BRANCH   6   7
ATOM      7  N   LEU A   1       9.533  -0.466  24.948  0.00  0.00    -0.320 NA
ATOM      8  H1  LEU A   1      10.375   0.089  25.124  0.00  0.00    +0.119 HD
ATOM      9  H2  LEU A   1       8.858  -0.077  25.614  0.00  0.00    +0.119 HD
ENDBRANCH   6   7
BRANCH   6  10
ATOM     10  CB  LEU A   1      10.195   0.419  22.722  0.00  0.00    +0.031 C 
BRANCH  10  11
ATOM     11  CG  LEU A   1      10.034   1.887  22.275  0.00  0.00    -0.015 C 
ATOM     12  CD2 LEU A   1       8.570   2.160  21.919  0.00  0.00    +0.007 C 
ATOM     13  CD1 LEU A   1      10.500   2.875  23.344  0.00  0.00    +0.007 C 
ENDBRANCH  10  11
ENDBRANCH   6  10
ENDBRANCH   2   6
ENDBRANCH   1   3
BRANCH   1  14
ATOM     14  C   HIS A   2       5.924  -1.739  20.335  0.00  0.00    +0.234 C 
ATOM     15  N   SER A   3       5.897  -0.367  20.234  0.00  0.00    -0.302 N 
ATOM     16  H   SER A   3       6.507   0.183  20.855  0.00  0.00    +0.150 HD
ATOM     17  O   HIS A   2       5.432  -2.471  19.473  0.00  0.00    -0.274 OA
BRANCH  15  18
ATOM     18  CA  SER A   3       5.409   0.288  19.021  0.00  0.00    +0.161 C 
BRANCH  18  19
ATOM     19  CB  SER A   3       6.571   0.648  18.105  0.00  0.00    +0.247 C 
ATOM     20  OG  SER A   3       7.699   0.172  18.207  0.00  0.00    -0.299 OA
ENDBRANCH  18  19
BRANCH  18  21
ATOM     21  C   SER A   3       4.603   1.559  19.321  0.00  0.00    +0.185 C 
BRANCH  21  22
ATOM     22  O   SER A   3       5.105   2.221  20.482  0.00  0.00    -0.393 OA
ATOM     23  H   SER A   3       4.584   1.884  21.236  0.00  0.00    +0.209 HD
ENDBRANCH  21  22
ENDBRANCH  18  21
ENDBRANCH  15  18
ENDBRANCH   1  14
BRANCH   1  24
ATOM     24  CB  HIS A   2       5.533  -2.991  22.494  0.00  0.00    +0.088 C 
BRANCH  24  25
ATOM     25  CG  HIS A   2       5.668  -4.468  22.435  0.00  0.00    +0.061 A 
ATOM     26  CD2 HIS A   2       4.838  -5.438  22.954  0.00  0.00    +0.107 A 
ATOM     27  NE2 HIS A   2       5.450  -6.624  22.664  0.00  0.00    -0.351 N 
ATOM     28  HE2 HIS A   2       5.118  -7.547  22.911  0.00  0.00    +0.166 HD
ATOM     29  CE1 HIS A   2       6.605  -6.337  21.994  0.00  0.00    +0.196 A 
ATOM     30  ND1 HIS A   2       6.773  -5.043  21.849  0.00  0.00    -0.241 NA
ENDBRANCH  24  25
ENDBRANCH   1  24
TORSDOF 12
ENDMDL
MODEL 6
REMARK VINA RESULT:      -6.2      1.986      5.148
REMARK  Name = LHS-mmff94.pdb
REMARK  14 active torsions:
REMARK  status: ('A' for Active; 'I' for Inactive)
REMARK    1  A    between atoms: _1  and  _2
REMARK    2  A    between atoms: _2  and  _3
REMARK    3  A    between atoms: _2  and  _5
REMARK    4  A    between atoms: _5  and  _6
REMARK    5  A    between atoms: _6  and  _7
REMARK    6  A    between atoms: _6  and  _8
REMARK    7  A    between atoms: _20  and  _21
REMARK    8  A    between atoms: _21  and  _22
REMARK    9  A    between atoms: _21  and  _24
REMARK   10  A    between atoms: _24  and  _25
REMARK   11  A    between atoms: _37  and  _38
REMARK   12  A    between atoms: _38  and  _39
REMARK   13  A    between atoms: _38  and  _41
REMARK   14  A    between atoms: _41  and  _42
REMARK                            x       y       z     vdW  Elec       q    Type
REMARK                         _______ _______ _______ _____ _____    ______ ____
ROOT
ATOM      1  CA  HIS A   2       8.875  -2.484  23.472  0.00  0.00    +0.165 C 
ENDROOT
BRANCH   1   3
ATOM      2  C   LEU A   1       8.177  -0.884  21.716  0.00  0.00    +0.230 C 
ATOM      3  N   HIS A   2       7.870  -1.638  22.822  0.00  0.00    -0.302 N 
ATOM      4  H   HIS A   2       6.915  -1.713  23.163  0.00  0.00    +0.150 HD
ATOM      5  O   LEU A   1       9.315  -0.831  21.248  0.00  0.00    -0.274 OA
BRANCH   2   6
ATOM      6  CA  LEU A   1       7.000  -0.078  21.124  0.00  0.00    +0.138 C 
BRANCH   6   7
ATOM      7  N   LEU A   1       6.513   0.879  22.139  0.00  0.00    -0.320 NA
ATOM      8  H1  LEU A   1       5.647   0.500  22.532  0.00  0.00    +0.119 HD
ATOM      9  H2  LEU A   1       7.161   0.840  22.931  0.00  0.00    +0.119 HD
ENDBRANCH   6   7
BRANCH   6  10
ATOM     10  CB  LEU A   1       7.443   0.650  19.845  0.00  0.00    +0.031 C 
BRANCH  10  11
ATOM     11  CG  LEU A   1       6.460   0.555  18.659  0.00  0.00    -0.015 C 
ATOM     12  CD2 LEU A   1       6.068  -0.907  18.429  0.00  0.00    +0.007 C 
ATOM     13  CD1 LEU A   1       5.205   1.400  18.874  0.00  0.00    +0.007 C 
ENDBRANCH  10  11
ENDBRANCH   6  10
ENDBRANCH   2   6
ENDBRANCH   1   3
BRANCH   1  14
ATOM     14  C   HIS A   2       8.294  -3.907  23.579  0.00  0.00    +0.234 C 
ATOM     15  N   SER A   3       7.135  -4.142  22.876  0.00  0.00    -0.302 N 
ATOM     16  H   SER A   3       6.858  -3.469  22.148  0.00  0.00    +0.150 HD
ATOM     17  O   HIS A   2       8.830  -4.773  24.274  0.00  0.00    -0.274 OA
BRANCH  15  18
ATOM     18  CA  SER A   3       6.560  -5.486  22.804  0.00  0.00    +0.161 C 
BRANCH  18  19
ATOM     19  CB  SER A   3       6.528  -5.976  21.363  0.00  0.00    +0.247 C 
ATOM     20  OG  SER A   3       5.948  -5.390  20.451  0.00  0.00    -0.299 OA
ENDBRANCH  18  19
BRANCH  18  21
ATOM     21  C   SER A   3       5.140  -5.549  23.380  0.00  0.00    +0.185 C 
BRANCH  21  22
ATOM     22  O   SER A   3       4.237  -4.757  22.609  0.00  0.00    -0.393 OA
ATOM     23  H   SER A   3       4.521  -3.829  22.722  0.00  0.00    +0.209 HD
ENDBRANCH  21  22
ENDBRANCH  18  21
ENDBRANCH  15  18
ENDBRANCH   1  14
BRANCH   1  24
ATOM     24  CB  HIS A   2       9.258  -1.953  24.858  0.00  0.00    +0.088 C 
BRANCH  24  25
ATOM     25  CG  HIS A   2       9.293  -0.469  24.863  0.00  0.00    +0.061 A 
ATOM     26  CD2 HIS A   2      10.374   0.375  24.738  0.00  0.00    +0.107 A 
ATOM     27  NE2 HIS A   2       9.861   1.634  24.862  0.00  0.00    -0.351 N 
ATOM     28  HE2 HIS A   2      10.381   2.501  24.831  0.00  0.00    +0.166 HD
ATOM     29  CE1 HIS A   2       8.514   1.511  25.054  0.00  0.00    +0.196 A 
ATOM     30  ND1 HIS A   2       8.140   0.252  25.072  0.00  0.00    -0.241 NA
ENDBRANCH  24  25
ENDBRANCH   1  24
TORSDOF 12
ENDMDL
MODEL 7
REMARK VINA RESULT:      -6.2      2.739      7.306
REMARK  Name = LHS-mmff94.pdb
REMARK  14 active torsions:
REMARK  status: ('A' for Active; 'I' for Inactive)
REMARK    1  A    between atoms: _1  and  _2
REMARK    2  A    between atoms: _2  and  _3
REMARK    3  A    between atoms: _2  and  _5
REMARK    4  A    between atoms: _5  and  _6
REMARK    5  A    between atoms: _6  and  _7
REMARK    6  A    between atoms: _6  and  _8
REMARK    7  A    between atoms: _20  and  _21
REMARK    8  A    between atoms: _21  and  _22
REMARK    9  A    between atoms: _21  and  _24
REMARK   10  A    between atoms: _24  and  _25
REMARK   11  A    between atoms: _37  and  _38
REMARK   12  A    between atoms: _38  and  _39
REMARK   13  A    between atoms: _38  and  _41
REMARK   14  A    between atoms: _41  and  _42
REMARK                            x       y       z     vdW  Elec       q    Type
REMARK                         _______ _______ _______ _____ _____    ______ ____
ROOT
ATOM      1  CA  HIS A   2       8.388  -2.572  23.457  0.00  0.00    +0.165 C 
ENDROOT
BRANCH   1   3
ATOM      2  C   LEU A   1       6.208  -3.673  23.055  0.00  0.00    +0.230 C 
ATOM      3  N   HIS A   2       7.562  -3.611  22.836  0.00  0.00    -0.302 N 
ATOM      4  H   HIS A   2       8.017  -4.216  22.157  0.00  0.00    +0.150 HD
ATOM      5  O   LEU A   1       5.627  -2.906  23.823  0.00  0.00    -0.274 OA
BRANCH   2   6
ATOM      6  CA  LEU A   1       5.472  -4.801  22.297  0.00  0.00    +0.138 C 
BRANCH   6   7
ATOM      7  N   LEU A   1       5.981  -4.862  20.911  0.00  0.00    -0.320 NA
ATOM      8  H1  LEU A   1       6.691  -4.132  20.810  0.00  0.00    +0.119 HD
ATOM      9  H2  LEU A   1       6.524  -5.726  20.823  0.00  0.00    +0.119 HD
ENDBRANCH   6   7
BRANCH   6  10
ATOM     10  CB  LEU A   1       5.668  -6.143  23.018  0.00  0.00    +0.031 C 
BRANCH  10  11
ATOM     11  CG  LEU A   1       4.482  -6.599  23.894  0.00  0.00    -0.015 C 
ATOM     12  CD2 LEU A   1       4.817  -6.379  25.372  0.00  0.00    +0.007 C 
ATOM     13  CD1 LEU A   1       3.185  -5.871  23.544  0.00  0.00    +0.007 C 
ENDBRANCH  10  11
ENDBRANCH   6  10
ENDBRANCH   2   6
ENDBRANCH   1   3
BRANCH   1  14
ATOM     14  C   HIS A   2       8.946  -1.679  22.333  0.00  0.00    +0.234 C 
ATOM     15  N   SER A   3       8.062  -0.786  21.774  0.00  0.00    -0.302 N 
ATOM     16  H   SER A   3       7.184  -0.587  22.274  0.00  0.00    +0.150 HD
ATOM     17  O   HIS A   2      10.112  -1.780  21.945  0.00  0.00    -0.274 OA
BRANCH  15  18
ATOM     18  CA  SER A   3       8.509   0.196  20.786  0.00  0.00    +0.161 C 
BRANCH  18  19
ATOM     19  CB  SER A   3       8.954   1.480  21.473  0.00  0.00    +0.247 C 
ATOM     20  OG  SER A   3      10.097   1.683  21.876  0.00  0.00    -0.299 OA
ENDBRANCH  18  19
BRANCH  18  21
ATOM     21  C   SER A   3       7.421   0.534  19.759  0.00  0.00    +0.185 C 
BRANCH  21  22
ATOM     22  O   SER A   3       7.797   0.100  18.452  0.00  0.00    -0.393 OA
ATOM     23  H   SER A   3       8.643  -0.376  18.554  0.00  0.00    +0.209 HD
ENDBRANCH  21  22
ENDBRANCH  18  21
ENDBRANCH  15  18
ENDBRANCH   1  14
BRANCH   1  24
ATOM     24  CB  HIS A   2       9.531  -3.172  24.285  0.00  0.00    +0.088 C 
BRANCH  24  25
ATOM     25  CG  HIS A   2       9.005  -4.117  25.302  0.00  0.00    +0.061 A 
ATOM     26  CD2 HIS A   2       9.300  -5.450  25.483  0.00  0.00    +0.107 A 
ATOM     27  NE2 HIS A   2       8.506  -5.855  26.517  0.00  0.00    -0.351 N 
ATOM     28  HE2 HIS A   2       8.458  -6.786  26.909  0.00  0.00    +0.166 HD
ATOM     29  CE1 HIS A   2       7.773  -4.775  26.918  0.00  0.00    +0.196 A 
ATOM     30  ND1 HIS A   2       8.041  -3.711  26.196  0.00  0.00    -0.241 NA
ENDBRANCH  24  25
ENDBRANCH   1  24
TORSDOF 12
ENDMDL
MODEL 8
REMARK VINA RESULT:      -6.2      2.029      5.232
REMARK  Name = LHS-mmff94.pdb
REMARK  14 active torsions:
REMARK  status: ('A' for Active; 'I' for Inactive)
REMARK    1  A    between atoms: _1  and  _2
REMARK    2  A    between atoms: _2  and  _3
REMARK    3  A    between atoms: _2  and  _5
REMARK    4  A    between atoms: _5  and  _6
REMARK    5  A    between atoms: _6  and  _7
REMARK    6  A    between atoms: _6  and  _8
REMARK    7  A    between atoms: _20  and  _21
REMARK    8  A    between atoms: _21  and  _22
REMARK    9  A    between atoms: _21  and  _24
REMARK   10  A    between atoms: _24  and  _25
REMARK   11  A    between atoms: _37  and  _38
REMARK   12  A    between atoms: _38  and  _39
REMARK   13  A    between atoms: _38  and  _41
REMARK   14  A    between atoms: _41  and  _42
REMARK                            x       y       z     vdW  Elec       q    Type
REMARK                         _______ _______ _______ _____ _____    ______ ____
ROOT
ATOM      1  CA  HIS A   2       9.542  -1.849  23.759  0.00  0.00    +0.165 C 
ENDROOT
BRANCH   1   3
ATOM      2  C   LEU A   1       8.565  -0.694  21.799  0.00  0.00    +0.230 C 
ATOM      3  N   HIS A   2       8.399  -1.320  23.010  0.00  0.00    -0.302 N 
ATOM      4  H   HIS A   2       7.472  -1.530  23.374  0.00  0.00    +0.150 HD
ATOM      5  O   LEU A   1       9.676  -0.488  21.309  0.00  0.00    -0.274 OA
BRANCH   2   6
ATOM      6  CA  LEU A   1       7.260  -0.229  21.115  0.00  0.00    +0.138 C 
BRANCH   6   7
ATOM      7  N   LEU A   1       6.602   0.782  21.970  0.00  0.00    -0.320 NA
ATOM      8  H1  LEU A   1       7.265   1.548  22.109  0.00  0.00    +0.119 HD
ATOM      9  H2  LEU A   1       5.861   1.217  21.413  0.00  0.00    +0.119 HD
ENDBRANCH   6   7
BRANCH   6  10
ATOM     10  CB  LEU A   1       7.563   0.339  19.720  0.00  0.00    +0.031 C 
BRANCH  10  11
ATOM     11  CG  LEU A   1       6.512   0.018  18.636  0.00  0.00    -0.015 C 
ATOM     12  CD2 LEU A   1       5.719  -1.229  19.038  0.00  0.00    +0.007 C 
ATOM     13  CD1 LEU A   1       5.555   1.184  18.390  0.00  0.00    +0.007 C 
ENDBRANCH  10  11
ENDBRANCH   6  10
ENDBRANCH   2   6
ENDBRANCH   1   3
BRANCH   1  14
ATOM     14  C   HIS A   2       9.207  -3.294  24.173  0.00  0.00    +0.234 C 
ATOM     15  N   SER A   3       7.877  -3.644  24.127  0.00  0.00    -0.302 N 
ATOM     16  H   SER A   3       7.228  -3.038  23.606  0.00  0.00    +0.150 HD
ATOM     17  O   HIS A   2      10.081  -4.079  24.545  0.00  0.00    -0.274 OA
BRANCH  15  18
ATOM     18  CA  SER A   3       7.453  -5.021  24.380  0.00  0.00    +0.161 C 
BRANCH  18  19
ATOM     19  CB  SER A   3       6.194  -5.346  23.588  0.00  0.00    +0.247 C 
ATOM     20  OG  SER A   3       6.169  -6.095  22.614  0.00  0.00    -0.299 OA
ENDBRANCH  18  19
BRANCH  18  21
ATOM     21  C   SER A   3       7.187  -5.291  25.867  0.00  0.00    +0.185 C 
BRANCH  21  22
ATOM     22  O   SER A   3       8.349  -5.814  26.509  0.00  0.00    -0.393 OA
ATOM     23  H   SER A   3       8.613  -6.602  25.996  0.00  0.00    +0.209 HD
ENDBRANCH  21  22
ENDBRANCH  18  21
ENDBRANCH  15  18
ENDBRANCH   1  14
BRANCH   1  24
ATOM     24  CB  HIS A   2       9.859  -0.995  24.993  0.00  0.00    +0.088 C 
BRANCH  24  25
ATOM     25  CG  HIS A   2       9.706   0.450  24.687  0.00  0.00    +0.061 A 
ATOM     26  CD2 HIS A   2      10.650   1.349  24.244  0.00  0.00    +0.107 A 
ATOM     27  NE2 HIS A   2       9.999   2.547  24.175  0.00  0.00    -0.351 N 
ATOM     28  HE2 HIS A   2      10.398   3.433  23.895  0.00  0.00    +0.166 HD
ATOM     29  CE1 HIS A   2       8.708   2.336  24.572  0.00  0.00    +0.196 A 
ATOM     30  ND1 HIS A   2       8.502   1.081  24.900  0.00  0.00    -0.241 NA
ENDBRANCH  24  25
ENDBRANCH   1  24
TORSDOF 12
ENDMDL
MODEL 9
REMARK VINA RESULT:      -6.1      2.550      5.531
REMARK  Name = LHS-mmff94.pdb
REMARK  14 active torsions:
REMARK  status: ('A' for Active; 'I' for Inactive)
REMARK    1  A    between atoms: _1  and  _2
REMARK    2  A    between atoms: _2  and  _3
REMARK    3  A    between atoms: _2  and  _5
REMARK    4  A    between atoms: _5  and  _6
REMARK    5  A    between atoms: _6  and  _7
REMARK    6  A    between atoms: _6  and  _8
REMARK    7  A    between atoms: _20  and  _21
REMARK    8  A    between atoms: _21  and  _22
REMARK    9  A    between atoms: _21  and  _24
REMARK   10  A    between atoms: _24  and  _25
REMARK   11  A    between atoms: _37  and  _38
REMARK   12  A    between atoms: _38  and  _39
REMARK   13  A    between atoms: _38  and  _41
REMARK   14  A    between atoms: _41  and  _42
REMARK                            x       y       z     vdW  Elec       q    Type
REMARK                         _______ _______ _______ _____ _____    ______ ____
ROOT
ATOM      1  CA  HIS A   2       7.574  -1.563  21.970  0.00  0.00    +0.165 C 
ENDROOT
BRANCH   1   3
ATOM      2  C   LEU A   1       9.065  -0.813  23.798  0.00  0.00    +0.230 C 
ATOM      3  N   HIS A   2       7.824  -0.823  23.209  0.00  0.00    -0.302 N 
ATOM      4  H   HIS A   2       7.069  -0.234  23.555  0.00  0.00    +0.150 HD
ATOM      5  O   LEU A   1      10.010  -1.466  23.358  0.00  0.00    -0.274 OA
BRANCH   2   6
ATOM      6  CA  LEU A   1       9.177   0.047  25.077  0.00  0.00    +0.138 C 
BRANCH   6   7
ATOM      7  N   LEU A   1      10.593   0.411  25.291  0.00  0.00    -0.320 NA
ATOM      8  H1  LEU A   1      11.135   0.009  24.521  0.00  0.00    +0.119 HD
ATOM      9  H2  LEU A   1      10.677   1.419  25.130  0.00  0.00    +0.119 HD
ENDBRANCH   6   7
BRANCH   6  10
ATOM     10  CB  LEU A   1       8.296   1.300  24.955  0.00  0.00    +0.031 C 
BRANCH  10  11
ATOM     11  CG  LEU A   1       9.021   2.569  24.458  0.00  0.00    -0.015 C 
ATOM     12  CD2 LEU A   1       8.969   2.629  22.929  0.00  0.00    +0.007 C 
ATOM     13  CD1 LEU A   1       8.426   3.848  25.047  0.00  0.00    +0.007 C 
ENDBRANCH  10  11
ENDBRANCH   6  10
ENDBRANCH   2   6
ENDBRANCH   1   3
BRANCH   1  14
ATOM     14  C   HIS A   2       7.541  -0.548  20.812  0.00  0.00    +0.234 C 
ATOM     15  N   SER A   3       6.302  -0.274  20.282  0.00  0.00    -0.302 N 
ATOM     16  H   SER A   3       5.467  -0.551  20.818  0.00  0.00    +0.150 HD
ATOM     17  O   HIS A   2       8.572  -0.032  20.376  0.00  0.00    -0.274 OA
BRANCH  15  18
ATOM     18  CA  SER A   3       6.133   0.763  19.264  0.00  0.00    +0.161 C 
BRANCH  18  19
ATOM     19  CB  SER A   3       5.109   1.795  19.718  0.00  0.00    +0.247 C 
ATOM     20  OG  SER A   3       3.941   1.818  19.335  0.00  0.00    -0.299 OA
ENDBRANCH  18  19
BRANCH  18  21
ATOM     21  C   SER A   3       5.694   0.191  17.910  0.00  0.00    +0.185 C 
BRANCH  21  22
ATOM     22  O   SER A   3       5.938  -1.213  17.843  0.00  0.00    -0.393 OA
ATOM     23  H   SER A   3       6.733  -1.379  18.385  0.00  0.00    +0.209 HD
ENDBRANCH  21  22
ENDBRANCH  18  21
ENDBRANCH  15  18
ENDBRANCH   1  14
BRANCH   1  24
ATOM     24  CB  HIS A   2       6.260  -2.352  22.032  0.00  0.00    +0.088 C 
BRANCH  24  25
ATOM     25  CG  HIS A   2       6.519  -3.812  21.974  0.00  0.00    +0.061 A 
ATOM     26  CD2 HIS A   2       7.397  -4.569  22.719  0.00  0.00    +0.107 A 
ATOM     27  NE2 HIS A   2       7.277  -5.839  22.231  0.00  0.00    -0.351 N 
ATOM     28  HE2 HIS A   2       7.789  -6.653  22.544  0.00  0.00    +0.166 HD
ATOM     29  CE1 HIS A   2       6.350  -5.807  21.229  0.00  0.00    +0.196 A 
ATOM     30  ND1 HIS A   2       5.881  -4.595  21.040  0.00  0.00    -0.241 NA
ENDBRANCH  24  25
ENDBRANCH   1  24
TORSDOF 12
ENDMDL
MODEL 10
REMARK VINA RESULT:      -6.1      2.466      4.809
REMARK  Name = LHS-mmff94.pdb
REMARK  14 active torsions:
REMARK  status: ('A' for Active; 'I' for Inactive)
REMARK    1  A    between atoms: _1  and  _2
REMARK    2  A    between atoms: _2  and  _3
REMARK    3  A    between atoms: _2  and  _5
REMARK    4  A    between atoms: _5  and  _6
REMARK    5  A    between atoms: _6  and  _7
REMARK    6  A    between atoms: _6  and  _8
REMARK    7  A    between atoms: _20  and  _21
REMARK    8  A    between atoms: _21  and  _22
REMARK    9  A    between atoms: _21  and  _24
REMARK   10  A    between atoms: _24  and  _25
REMARK   11  A    between atoms: _37  and  _38
REMARK   12  A    between atoms: _38  and  _39
REMARK   13  A    between atoms: _38  and  _41
REMARK   14  A    between atoms: _41  and  _42
REMARK                            x       y       z     vdW  Elec       q    Type
REMARK                         _______ _______ _______ _____ _____    ______ ____
ROOT
ATOM      1  CA  HIS A   2       8.743  -2.954  23.979  0.00  0.00    +0.165 C 
ENDROOT
BRANCH   1   3
ATOM      2  C   LEU A   1       8.674  -1.585  21.917  0.00  0.00    +0.230 C 
ATOM      3  N   HIS A   2       8.034  -2.108  23.015  0.00  0.00    -0.302 N 
ATOM      4  H   HIS A   2       7.029  -2.013  23.137  0.00  0.00    +0.150 HD
ATOM      5  O   LEU A   1       9.878  -1.745  21.716  0.00  0.00    -0.274 OA
BRANCH   2   6
ATOM      6  CA  LEU A   1       7.780  -0.748  20.974  0.00  0.00    +0.138 C 
BRANCH   6   7
ATOM      7  N   LEU A   1       6.427  -0.643  21.560  0.00  0.00    -0.320 NA
ATOM      8  H1  LEU A   1       6.149  -1.580  21.864  0.00  0.00    +0.119 HD
ATOM      9  H2  LEU A   1       6.516  -0.131  22.443  0.00  0.00    +0.119 HD
ENDBRANCH   6   7
BRANCH   6  10
ATOM     10  CB  LEU A   1       8.396   0.642  20.753  0.00  0.00    +0.031 C 
BRANCH  10  11
ATOM     11  CG  LEU A   1       8.645   1.464  22.034  0.00  0.00    -0.015 C 
ATOM     12  CD2 LEU A   1      10.128   1.834  22.131  0.00  0.00    +0.007 C 
ATOM     13  CD1 LEU A   1       7.791   2.731  22.088  0.00  0.00    +0.007 C 
ENDBRANCH  10  11
ENDBRANCH   6  10
ENDBRANCH   2   6
ENDBRANCH   1   3
BRANCH   1  14
ATOM     14  C   HIS A   2       8.201  -4.388  23.835  0.00  0.00    +0.234 C 
ATOM     15  N   SER A   3       6.934  -4.507  23.311  0.00  0.00    -0.302 N 
ATOM     16  H   SER A   3       6.524  -3.695  22.830  0.00  0.00    +0.150 HD
ATOM     17  O   HIS A   2       8.859  -5.368  24.191  0.00  0.00    -0.274 OA
BRANCH  15  18
ATOM     18  CA  SER A   3       6.364  -5.822  23.015  0.00  0.00    +0.161 C 
BRANCH  18  19
ATOM     19  CB  SER A   3       6.346  -6.069  21.512  0.00  0.00    +0.247 C 
ATOM     20  OG  SER A   3       5.917  -5.264  20.689  0.00  0.00    -0.299 OA
ENDBRANCH  18  19
BRANCH  18  21
ATOM     21  C   SER A   3       4.939  -5.981  23.560  0.00  0.00    +0.185 C 
BRANCH  21  22
ATOM     22  O   SER A   3       4.606  -7.358  23.732  0.00  0.00    -0.393 OA
ATOM     23  H   SER A   3       3.649  -7.387  23.923  0.00  0.00    +0.209 HD
ENDBRANCH  21  22
ENDBRANCH  18  21
ENDBRANCH  15  18
ENDBRANCH   1  14
BRANCH   1  24
ATOM     24  CB  HIS A   2       8.564  -2.453  25.417  0.00  0.00    +0.088 C 
BRANCH  24  25
ATOM     25  CG  HIS A   2       8.536  -0.969  25.458  0.00  0.00    +0.061 A 
ATOM     26  CD2 HIS A   2       9.588  -0.080  25.431  0.00  0.00    +0.107 A 
ATOM     27  NE2 HIS A   2       9.015   1.155  25.546  0.00  0.00    -0.351 N 
ATOM     28  HE2 HIS A   2       9.500   2.042  25.572  0.00  0.00    +0.166 HD
ATOM     29  CE1 HIS A   2       7.664   0.973  25.637  0.00  0.00    +0.196 A 
ATOM     30  ND1 HIS A   2       7.343  -0.300  25.599  0.00  0.00    -0.241 NA
ENDBRANCH  24  25
ENDBRANCH   1  24
TORSDOF 12
ENDMDL
MODEL 11
REMARK VINA RESULT:      -6.1      2.396      5.267
REMARK  Name = LHS-mmff94.pdb
REMARK  14 active torsions:
REMARK  status: ('A' for Active; 'I' for Inactive)
REMARK    1  A    between atoms: _1  and  _2
REMARK    2  A    between atoms: _2  and  _3
REMARK    3  A    between atoms: _2  and  _5
REMARK    4  A    between atoms: _5  and  _6
REMARK    5  A    between atoms: _6  and  _7
REMARK    6  A    between atoms: _6  and  _8
REMARK    7  A    between atoms: _20  and  _21
REMARK    8  A    between atoms: _21  and  _22
REMARK    9  A    between atoms: _21  and  _24
REMARK   10  A    between atoms: _24  and  _25
REMARK   11  A    between atoms: _37  and  _38
REMARK   12  A    between atoms: _38  and  _39
REMARK   13  A    between atoms: _38  and  _41
REMARK   14  A    between atoms: _41  and  _42
REMARK                            x       y       z     vdW  Elec       q    Type
REMARK                         _______ _______ _______ _____ _____    ______ ____
ROOT
ATOM      1  CA  HIS A   2       9.896  -0.429  24.012  0.00  0.00    +0.165 C 
ENDROOT
BRANCH   1   3
ATOM      2  C   LEU A   1       8.389  -0.634  22.060  0.00  0.00    +0.230 C 
ATOM      3  N   HIS A   2       8.791   0.052  23.179  0.00  0.00    -0.302 N 
ATOM      4  H   HIS A   2       8.271   0.856  23.523  0.00  0.00    +0.150 HD
ATOM      5  O   LEU A   1       8.965  -1.647  21.663  0.00  0.00    -0.274 OA
BRANCH   2   6
ATOM      6  CA  LEU A   1       7.184  -0.020  21.311  0.00  0.00    +0.138 C 
BRANCH   6   7
ATOM      7  N   LEU A   1       6.667   1.126  22.089  0.00  0.00    -0.320 NA
ATOM      8  H1  LEU A   1       5.791   1.425  21.652  0.00  0.00    +0.119 HD
ATOM      9  H2  LEU A   1       6.361   0.765  22.997  0.00  0.00    +0.119 HD
ENDBRANCH   6   7
BRANCH   6  10
ATOM     10  CB  LEU A   1       7.602   0.414  19.898  0.00  0.00    +0.031 C 
BRANCH  10  11
ATOM     11  CG  LEU A   1       6.696  -0.096  18.758  0.00  0.00    -0.015 C 
ATOM     12  CD2 LEU A   1       5.773  -1.198  19.285  0.00  0.00    +0.007 C 
ATOM     13  CD1 LEU A   1       5.862   1.022  18.132  0.00  0.00    +0.007 C 
ENDBRANCH  10  11
ENDBRANCH   6  10
ENDBRANCH   2   6
ENDBRANCH   1   3
BRANCH   1  14
ATOM     14  C   HIS A   2       9.301  -1.329  25.111  0.00  0.00    +0.234 C 
ATOM     15  N   SER A   3       9.091  -2.645  24.768  0.00  0.00    -0.302 N 
ATOM     16  H   SER A   3       9.550  -3.010  23.921  0.00  0.00    +0.150 HD
ATOM     17  O   HIS A   2       9.010  -0.885  26.224  0.00  0.00    -0.274 OA
BRANCH  15  18
ATOM     18  CA  SER A   3       8.646  -3.620  25.764  0.00  0.00    +0.161 C 
BRANCH  18  19
ATOM     19  CB  SER A   3       9.437  -4.914  25.634  0.00  0.00    +0.247 C 
ATOM     20  OG  SER A   3       9.419  -5.633  24.638  0.00  0.00    -0.299 OA
ENDBRANCH  18  19
BRANCH  18  21
ATOM     21  C   SER A   3       7.150  -3.939  25.646  0.00  0.00    +0.185 C 
BRANCH  21  22
ATOM     22  O   SER A   3       6.840  -4.476  24.360  0.00  0.00    -0.393 OA
ATOM     23  H   SER A   3       6.319  -5.286  24.521  0.00  0.00    +0.209 HD
ENDBRANCH  21  22
ENDBRANCH  18  21
ENDBRANCH  15  18
ENDBRANCH   1  14
BRANCH   1  24
ATOM     24  CB  HIS A   2      10.687   0.728  24.635  0.00  0.00    +0.088 C 
BRANCH  24  25
ATOM     25  CG  HIS A   2      10.129   2.037  24.211  0.00  0.00    +0.061 A 
ATOM     26  CD2 HIS A   2      10.660   2.969  23.347  0.00  0.00    +0.107 A 
ATOM     27  NE2 HIS A   2       9.772   4.007  23.350  0.00  0.00    -0.351 N 
ATOM     28  HE2 HIS A   2       9.855   4.870  22.831  0.00  0.00    +0.166 HD
ATOM     29  CE1 HIS A   2       8.755   3.673  24.199  0.00  0.00    +0.196 A 
ATOM     30  ND1 HIS A   2       8.946   2.494  24.745  0.00  0.00    -0.241 NA
ENDBRANCH  24  25
ENDBRANCH   1  24
TORSDOF 12
ENDMDL
MODEL 12
REMARK VINA RESULT:      -6.1      2.453      3.190
REMARK  Name = LHS-mmff94.pdb
REMARK  14 active torsions:
REMARK  status: ('A' for Active; 'I' for Inactive)
REMARK    1  A    between atoms: _1  and  _2
REMARK    2  A    between atoms: _2  and  _3
REMARK    3  A    between atoms: _2  and  _5
REMARK    4  A    between atoms: _5  and  _6
REMARK    5  A    between atoms: _6  and  _7
REMARK    6  A    between atoms: _6  and  _8
REMARK    7  A    between atoms: _20  and  _21
REMARK    8  A    between atoms: _21  and  _22
REMARK    9  A    between atoms: _21  and  _24
REMARK   10  A    between atoms: _24  and  _25
REMARK   11  A    between atoms: _37  and  _38
REMARK   12  A    between atoms: _38  and  _39
REMARK   13  A    between atoms: _38  and  _41
REMARK   14  A    between atoms: _41  and  _42
REMARK                            x       y       z     vdW  Elec       q    Type
REMARK                         _______ _______ _______ _____ _____    ______ ____
ROOT
ATOM      1  CA  HIS A   2       7.901  -0.357  21.733  0.00  0.00    +0.165 C 
ENDROOT
BRANCH   1   3
ATOM      2  C   LEU A   1       8.148   1.304  23.552  0.00  0.00    +0.230 C 
ATOM      3  N   HIS A   2       8.720   0.451  22.640  0.00  0.00    -0.302 N 
ATOM      4  H   HIS A   2       9.722   0.275  22.636  0.00  0.00    +0.150 HD
ATOM      5  O   LEU A   1       6.932   1.482  23.618  0.00  0.00    -0.274 OA
BRANCH   2   6
ATOM      6  CA  LEU A   1       9.145   2.055  24.463  0.00  0.00    +0.138 C 
BRANCH   6   7
ATOM      7  N   LEU A   1      10.084   1.080  25.057  0.00  0.00    -0.320 NA
ATOM      8  H1  LEU A   1       9.838   0.155  24.695  0.00  0.00    +0.119 HD
ATOM      9  H2  LEU A   1      11.005   1.252  24.643  0.00  0.00    +0.119 HD
ENDBRANCH   6   7
BRANCH   6  10
ATOM     10  CB  LEU A   1       9.896   3.128  23.659  0.00  0.00    +0.031 C 
BRANCH  10  11
ATOM     11  CG  LEU A   1       9.384   4.571  23.848  0.00  0.00    -0.015 C 
ATOM     12  CD2 LEU A   1       8.593   4.672  25.155  0.00  0.00    +0.007 C 
ATOM     13  CD1 LEU A   1      10.519   5.596  23.848  0.00  0.00    +0.007 C 
ENDBRANCH  10  11
ENDBRANCH   6  10
ENDBRANCH   2   6
ENDBRANCH   1   3
BRANCH   1  14
ATOM     14  C   HIS A   2       8.230  -1.839  21.995  0.00  0.00    +0.234 C 
ATOM     15  N   SER A   3       7.154  -2.669  22.208  0.00  0.00    -0.302 N 
ATOM     16  H   SER A   3       6.216  -2.334  21.948  0.00  0.00    +0.150 HD
ATOM     17  O   HIS A   2       9.393  -2.246  22.032  0.00  0.00    -0.274 OA
BRANCH  15  18
ATOM     18  CA  SER A   3       7.336  -4.115  22.344  0.00  0.00    +0.161 C 
BRANCH  18  19
ATOM     19  CB  SER A   3       6.120  -4.859  21.810  0.00  0.00    +0.247 C 
ATOM     20  OG  SER A   3       5.963  -5.161  20.629  0.00  0.00    -0.299 OA
ENDBRANCH  18  19
BRANCH  18  21
ATOM     21  C   SER A   3       7.580  -4.542  23.797  0.00  0.00    +0.185 C 
BRANCH  21  22
ATOM     22  O   SER A   3       8.974  -4.549  24.103  0.00  0.00    -0.393 OA
ATOM     23  H   SER A   3       9.348  -5.335  23.659  0.00  0.00    +0.209 HD
ENDBRANCH  21  22
ENDBRANCH  18  21
ENDBRANCH  15  18
ENDBRANCH   1  14
BRANCH   1  24
ATOM     24  CB  HIS A   2       8.155  -0.000  20.264  0.00  0.00    +0.088 C 
BRANCH  24  25
ATOM     25  CG  HIS A   2       6.878   0.291  19.564  0.00  0.00    +0.061 A 
ATOM     26  CD2 HIS A   2       6.322  -0.339  18.472  0.00  0.00    +0.107 A 
ATOM     27  NE2 HIS A   2       5.177   0.354  18.204  0.00  0.00    -0.351 N 
ATOM     28  HE2 HIS A   2       4.523   0.168  17.455  0.00  0.00    +0.166 HD
ATOM     29  CE1 HIS A   2       5.081   1.359  19.124  0.00  0.00    +0.196 A 
ATOM     30  ND1 HIS A   2       6.100   1.357  19.953  0.00  0.00    -0.241 NA
ENDBRANCH  24  25
ENDBRANCH   1  24
TORSDOF 12
ENDMDL
MODEL 13
REMARK VINA RESULT:      -6.0      2.503      5.472
REMARK  Name = LHS-mmff94.pdb
REMARK  14 active torsions:
REMARK  status: ('A' for Active; 'I' for Inactive)
REMARK    1  A    between atoms: _1  and  _2
REMARK    2  A    between atoms: _2  and  _3
REMARK    3  A    between atoms: _2  and  _5
REMARK    4  A    between atoms: _5  and  _6
REMARK    5  A    between atoms: _6  and  _7
REMARK    6  A    between atoms: _6  and  _8
REMARK    7  A    between atoms: _20  and  _21
REMARK    8  A    between atoms: _21  and  _22
REMARK    9  A    between atoms: _21  and  _24
REMARK   10  A    between atoms: _24  and  _25
REMARK   11  A    between atoms: _37  and  _38
REMARK   12  A    between atoms: _38  and  _39
REMARK   13  A    between atoms: _38  and  _41
REMARK   14  A    between atoms: _41  and  _42
REMARK                            x       y       z     vdW  Elec       q    Type
REMARK                         _______ _______ _______ _____ _____    ______ ____
ROOT
ATOM      1  CA  HIS A   2       8.661  -1.713  23.883  0.00  0.00    +0.165 C 
ENDROOT
BRANCH   1   3
ATOM      2  C   LEU A   1       9.770   0.013  22.497  0.00  0.00    +0.230 C 
ATOM      3  N   HIS A   2       9.090  -0.334  23.639  0.00  0.00    -0.302 N 
ATOM      4  H   HIS A   2       8.772   0.371  24.300  0.00  0.00    +0.150 HD
ATOM      5  O   LEU A   1      10.107  -0.817  21.652  0.00  0.00    -0.274 OA
BRANCH   2   6
ATOM      6  CA  LEU A   1      10.117   1.513  22.369  0.00  0.00    +0.138 C 
BRANCH   6   7
ATOM      7  N   LEU A   1       9.149   2.155  21.455  0.00  0.00    -0.320 NA
ATOM      8  H1  LEU A   1       9.630   2.928  20.988  0.00  0.00    +0.119 HD
ATOM      9  H2  LEU A   1       8.970   1.498  20.690  0.00  0.00    +0.119 HD
ENDBRANCH   6   7
BRANCH   6  10
ATOM     10  CB  LEU A   1      10.100   2.183  23.752  0.00  0.00    +0.031 C 
BRANCH  10  11
ATOM     11  CG  LEU A   1       9.027   3.275  23.942  0.00  0.00    -0.015 C 
ATOM     12  CD2 LEU A   1       8.194   2.970  25.189  0.00  0.00    +0.007 C 
ATOM     13  CD1 LEU A   1       9.635   4.674  24.054  0.00  0.00    +0.007 C 
ENDBRANCH  10  11
ENDBRANCH   6  10
ENDBRANCH   2   6
ENDBRANCH   1   3
BRANCH   1  14
ATOM     14  C   HIS A   2       7.256  -1.884  23.276  0.00  0.00    +0.234 C 
ATOM     15  N   SER A   3       7.207  -2.155  21.928  0.00  0.00    -0.302 N 
ATOM     16  H   SER A   3       8.069  -2.466  21.459  0.00  0.00    +0.150 HD
ATOM     17  O   HIS A   2       6.237  -1.760  23.960  0.00  0.00    -0.274 OA
BRANCH  15  18
ATOM     18  CA  SER A   3       5.936  -2.458  21.268  0.00  0.00    +0.161 C 
BRANCH  18  19
ATOM     19  CB  SER A   3       5.736  -3.963  21.162  0.00  0.00    +0.247 C 
ATOM     20  OG  SER A   3       5.120  -4.634  21.987  0.00  0.00    -0.299 OA
ENDBRANCH  18  19
BRANCH  18  21
ATOM     21  C   SER A   3       5.842  -1.845  19.865  0.00  0.00    +0.185 C 
BRANCH  21  22
ATOM     22  O   SER A   3       5.343  -2.794  18.923  0.00  0.00    -0.393 OA
ATOM     23  H   SER A   3       4.525  -3.160  19.311  0.00  0.00    +0.209 HD
ENDBRANCH  21  22
ENDBRANCH  18  21
ENDBRANCH  15  18
ENDBRANCH   1  14
BRANCH   1  24
ATOM     24  CB  HIS A   2       8.646  -2.050  25.379  0.00  0.00    +0.088 C 
BRANCH  24  25
ATOM     25  CG  HIS A   2       8.727  -3.518  25.589  0.00  0.00    +0.061 A 
ATOM     26  CD2 HIS A   2       8.155  -4.286  26.579  0.00  0.00    +0.107 A 
ATOM     27  NE2 HIS A   2       8.586  -5.559  26.338  0.00  0.00    -0.351 N 
ATOM     28  HE2 HIS A   2       8.365  -6.382  26.884  0.00  0.00    +0.166 HD
ATOM     29  CE1 HIS A   2       9.387  -5.518  25.232  0.00  0.00    +0.196 A 
ATOM     30  ND1 HIS A   2       9.503  -4.297  24.762  0.00  0.00    -0.241 NA
ENDBRANCH  24  25
ENDBRANCH   1  24
TORSDOF 12
ENDMDL
MODEL 14
REMARK VINA RESULT:      -6.0      3.248      6.180
REMARK  Name = LHS-mmff94.pdb
REMARK  14 active torsions:
REMARK  status: ('A' for Active; 'I' for Inactive)
REMARK    1  A    between atoms: _1  and  _2
REMARK    2  A    between atoms: _2  and  _3
REMARK    3  A    between atoms: _2  and  _5
REMARK    4  A    between atoms: _5  and  _6
REMARK    5  A    between atoms: _6  and  _7
REMARK    6  A    between atoms: _6  and  _8
REMARK    7  A    between atoms: _20  and  _21
REMARK    8  A    between atoms: _21  and  _22
REMARK    9  A    between atoms: _21  and  _24
REMARK   10  A    between atoms: _24  and  _25
REMARK   11  A    between atoms: _37  and  _38
REMARK   12  A    between atoms: _38  and  _39
REMARK   13  A    between atoms: _38  and  _41
REMARK   14  A    between atoms: _41  and  _42
REMARK                            x       y       z     vdW  Elec       q    Type
REMARK                         _______ _______ _______ _____ _____    ______ ____
ROOT
ATOM      1  CA  HIS A   2       7.633  -2.560  22.499  0.00  0.00    +0.165 C 
ENDROOT
BRANCH   1   3
ATOM      2  C   LEU A   1       8.991  -3.760  24.187  0.00  0.00    +0.230 C 
ATOM      3  N   HIS A   2       7.790  -3.573  23.546  0.00  0.00    -0.302 N 
ATOM      4  H   HIS A   2       6.948  -4.056  23.850  0.00  0.00    +0.150 HD
ATOM      5  O   LEU A   1      10.007  -3.137  23.879  0.00  0.00    -0.274 OA
BRANCH   2   6
ATOM      6  CA  LEU A   1       8.983  -4.837  25.295  0.00  0.00    +0.138 C 
BRANCH   6   7
ATOM      7  N   LEU A   1      10.328  -5.441  25.389  0.00  0.00    -0.320 NA
ATOM      8  H1  LEU A   1      10.955  -4.895  24.792  0.00  0.00    +0.119 HD
ATOM      9  H2  LEU A   1      10.683  -5.250  26.331  0.00  0.00    +0.119 HD
ENDBRANCH   6   7
BRANCH   6  10
ATOM     10  CB  LEU A   1       8.559  -4.217  26.635  0.00  0.00    +0.031 C 
BRANCH  10  11
ATOM     11  CG  LEU A   1       7.086  -4.450  27.032  0.00  0.00    -0.015 C 
ATOM     12  CD2 LEU A   1       6.286  -3.160  26.829  0.00  0.00    +0.007 C 
ATOM     13  CD1 LEU A   1       6.443  -5.589  26.241  0.00  0.00    +0.007 C 
ENDBRANCH  10  11
ENDBRANCH   6  10
ENDBRANCH   2   6
ENDBRANCH   1   3
BRANCH   1  14
ATOM     14  C   HIS A   2       7.447  -1.195  23.187  0.00  0.00    +0.234 C 
ATOM     15  N   SER A   3       8.519  -0.335  23.125  0.00  0.00    -0.302 N 
ATOM     16  H   SER A   3       9.266  -0.530  22.444  0.00  0.00    +0.150 HD
ATOM     17  O   HIS A   2       6.403  -0.905  23.776  0.00  0.00    -0.274 OA
BRANCH  15  18
ATOM     18  CA  SER A   3       8.415   1.033  23.635  0.00  0.00    +0.161 C 
BRANCH  18  19
ATOM     19  CB  SER A   3       9.086   2.011  22.680  0.00  0.00    +0.247 C 
ATOM     20  OG  SER A   3      10.199   1.836  22.189  0.00  0.00    -0.299 OA
ENDBRANCH  18  19
BRANCH  18  21
ATOM     21  C   SER A   3       9.041   1.190  25.027  0.00  0.00    +0.185 C 
BRANCH  21  22
ATOM     22  O   SER A   3      10.423   0.835  25.011  0.00  0.00    -0.393 OA
ATOM     23  H   SER A   3      10.884   1.552  24.534  0.00  0.00    +0.209 HD
ENDBRANCH  21  22
ENDBRANCH  18  21
ENDBRANCH  15  18
ENDBRANCH   1  14
BRANCH   1  24
ATOM     24  CB  HIS A   2       6.443  -2.868  21.581  0.00  0.00    +0.088 C 
BRANCH  24  25
ATOM     25  CG  HIS A   2       5.922  -4.234  21.835  0.00  0.00    +0.061 A 
ATOM     26  CD2 HIS A   2       6.274  -5.424  21.237  0.00  0.00    +0.107 A 
ATOM     27  NE2 HIS A   2       5.457  -6.363  21.799  0.00  0.00    -0.351 N 
ATOM     28  HE2 HIS A   2       5.438  -7.350  21.582  0.00  0.00    +0.166 HD
ATOM     29  CE1 HIS A   2       4.655  -5.722  22.701  0.00  0.00    +0.196 A 
ATOM     30  ND1 HIS A   2       4.902  -4.432  22.738  0.00  0.00    -0.241 NA
ENDBRANCH  24  25
ENDBRANCH   1  24
TORSDOF 12
ENDMDL
MODEL 15
REMARK VINA RESULT:      -6.0      2.439      5.660
REMARK  Name = LHS-mmff94.pdb
REMARK  14 active torsions:
REMARK  status: ('A' for Active; 'I' for Inactive)
REMARK    1  A    between atoms: _1  and  _2
REMARK    2  A    between atoms: _2  and  _3
REMARK    3  A    between atoms: _2  and  _5
REMARK    4  A    between atoms: _5  and  _6
REMARK    5  A    between atoms: _6  and  _7
REMARK    6  A    between atoms: _6  and  _8
REMARK    7  A    between atoms: _20  and  _21
REMARK    8  A    between atoms: _21  and  _22
REMARK    9  A    between atoms: _21  and  _24
REMARK   10  A    between atoms: _24  and  _25
REMARK   11  A    between atoms: _37  and  _38
REMARK   12  A    between atoms: _38  and  _39
REMARK   13  A    between atoms: _38  and  _41
REMARK   14  A    between atoms: _41  and  _42
REMARK                            x       y       z     vdW  Elec       q    Type
REMARK                         _______ _______ _______ _____ _____    ______ ____
ROOT
ATOM      1  CA  HIS A   2       7.854  -2.278  23.358  0.00  0.00    +0.165 C 
ENDROOT
BRANCH   1   3
ATOM      2  C   LEU A   1       8.385  -0.465  21.758  0.00  0.00    +0.230 C 
ATOM      3  N   HIS A   2       7.557  -0.995  22.718  0.00  0.00    -0.302 N 
ATOM      4  H   HIS A   2       6.661  -0.566  22.938  0.00  0.00    +0.150 HD
ATOM      5  O   LEU A   1       9.443  -1.003  21.429  0.00  0.00    -0.274 OA
BRANCH   2   6
ATOM      6  CA  LEU A   1       7.913   0.875  21.150  0.00  0.00    +0.138 C 
BRANCH   6   7
ATOM      7  N   LEU A   1       8.989   1.876  21.296  0.00  0.00    -0.320 NA
ATOM      8  H1  LEU A   1       8.550   2.772  21.522  0.00  0.00    +0.119 HD
ATOM      9  H2  LEU A   1       9.504   1.649  22.152  0.00  0.00    +0.119 HD
ENDBRANCH   6   7
BRANCH   6  10
ATOM     10  CB  LEU A   1       7.530   0.683  19.675  0.00  0.00    +0.031 C 
BRANCH  10  11
ATOM     11  CG  LEU A   1       6.080   0.218  19.425  0.00  0.00    -0.015 C 
ATOM     12  CD2 LEU A   1       5.198   1.428  19.105  0.00  0.00    +0.007 C 
ATOM     13  CD1 LEU A   1       5.984  -0.806  18.294  0.00  0.00    +0.007 C 
ENDBRANCH  10  11
ENDBRANCH   6  10
ENDBRANCH   2   6
ENDBRANCH   1   3
BRANCH   1  14
ATOM     14  C   HIS A   2       6.514  -2.967  23.678  0.00  0.00    +0.234 C 
ATOM     15  N   SER A   3       6.512  -4.342  23.623  0.00  0.00    -0.302 N 
ATOM     16  H   SER A   3       7.416  -4.834  23.617  0.00  0.00    +0.150 HD
ATOM     17  O   HIS A   2       5.501  -2.318  23.946  0.00  0.00    -0.274 OA
BRANCH  15  18
ATOM     18  CA  SER A   3       5.332  -5.108  24.026  0.00  0.00    +0.161 C 
BRANCH  18  19
ATOM     19  CB  SER A   3       5.393  -5.439  25.510  0.00  0.00    +0.247 C 
ATOM     20  OG  SER A   3       6.223  -6.194  26.013  0.00  0.00    -0.299 OA
ENDBRANCH  18  19
BRANCH  18  21
ATOM     21  C   SER A   3       5.179  -6.412  23.233  0.00  0.00    +0.185 C 
BRANCH  21  22
ATOM     22  O   SER A   3       4.428  -7.376  23.970  0.00  0.00    -0.393 OA
ATOM     23  H   SER A   3       4.756  -8.252  23.689  0.00  0.00    +0.209 HD
ENDBRANCH  21  22
ENDBRANCH  18  21
ENDBRANCH  15  18
ENDBRANCH   1  14
BRANCH   1  24
ATOM     24  CB  HIS A   2       8.686  -2.100  24.634  0.00  0.00    +0.088 C 
BRANCH  24  25
ATOM     25  CG  HIS A   2       8.925  -3.408  25.294  0.00  0.00    +0.061 A 
ATOM     26  CD2 HIS A   2       8.622  -3.800  26.580  0.00  0.00    +0.107 A 
ATOM     27  NE2 HIS A   2       9.100  -5.075  26.687  0.00  0.00    -0.351 N 
ATOM     28  HE2 HIS A   2       9.057  -5.666  27.506  0.00  0.00    +0.166 HD
ATOM     29  CE1 HIS A   2       9.664  -5.404  25.487  0.00  0.00    +0.196 A 
ATOM     30  ND1 HIS A   2       9.586  -4.414  24.627  0.00  0.00    -0.241 NA
ENDBRANCH  24  25
ENDBRANCH   1  24
TORSDOF 12
ENDMDL
MODEL 16
REMARK VINA RESULT:      -5.9      2.548      5.763
REMARK  Name = LHS-mmff94.pdb
REMARK  14 active torsions:
REMARK  status: ('A' for Active; 'I' for Inactive)
REMARK    1  A    between atoms: _1  and  _2
REMARK    2  A    between atoms: _2  and  _3
REMARK    3  A    between atoms: _2  and  _5
REMARK    4  A    between atoms: _5  and  _6
REMARK    5  A    between atoms: _6  and  _7
REMARK    6  A    between atoms: _6  and  _8
REMARK    7  A    between atoms: _20  and  _21
REMARK    8  A    between atoms: _21  and  _22
REMARK    9  A    between atoms: _21  and  _24
REMARK   10  A    between atoms: _24  and  _25
REMARK   11  A    between atoms: _37  and  _38
REMARK   12  A    between atoms: _38  and  _39
REMARK   13  A    between atoms: _38  and  _41
REMARK   14  A    between atoms: _41  and  _42
REMARK                            x       y       z     vdW  Elec       q    Type
REMARK                         _______ _______ _______ _____ _____    ______ ____
ROOT
ATOM      1  CA  HIS A   2       7.834  -0.199  21.616  0.00  0.00    +0.165 C 
ENDROOT
BRANCH   1   3
ATOM      2  C   LEU A   1       6.853  -2.403  22.173  0.00  0.00    +0.230 C 
ATOM      3  N   HIS A   2       6.686  -1.088  21.814  0.00  0.00    -0.302 N 
ATOM      4  H   HIS A   2       5.762  -0.663  21.778  0.00  0.00    +0.150 HD
ATOM      5  O   LEU A   1       7.965  -2.920  22.287  0.00  0.00    -0.274 OA
BRANCH   2   6
ATOM      6  CA  LEU A   1       5.545  -3.198  22.383  0.00  0.00    +0.138 C 
BRANCH   6   7
ATOM      7  N   LEU A   1       5.517  -4.338  21.443  0.00  0.00    -0.320 NA
ATOM      8  H1  LEU A   1       5.458  -5.195  21.999  0.00  0.00    +0.119 HD
ATOM      9  H2  LEU A   1       4.614  -4.314  20.961  0.00  0.00    +0.119 HD
ENDBRANCH   6   7
BRANCH   6  10
ATOM     10  CB  LEU A   1       5.443  -3.679  23.839  0.00  0.00    +0.031 C 
BRANCH  10  11
ATOM     11  CG  LEU A   1       5.965  -5.107  24.099  0.00  0.00    -0.015 C 
ATOM     12  CD2 LEU A   1       7.161  -5.053  25.054  0.00  0.00    +0.007 C 
ATOM     13  CD1 LEU A   1       4.886  -6.026  24.672  0.00  0.00    +0.007 C 
ENDBRANCH  10  11
ENDBRANCH   6  10
ENDBRANCH   2   6
ENDBRANCH   1   3
BRANCH   1  14
ATOM     14  C   HIS A   2       7.521   1.137  22.315  0.00  0.00    +0.234 C 
ATOM     15  N   SER A   3       6.223   1.311  22.737  0.00  0.00    -0.302 N 
ATOM     16  H   SER A   3       5.611   0.485  22.791  0.00  0.00    +0.150 HD
ATOM     17  O   HIS A   2       8.383   2.006  22.464  0.00  0.00    -0.274 OA
BRANCH  15  18
ATOM     18  CA  SER A   3       5.838   2.486  23.520  0.00  0.00    +0.161 C 
BRANCH  18  19
ATOM     19  CB  SER A   3       4.848   2.099  24.610  0.00  0.00    +0.247 C 
ATOM     20  OG  SER A   3       3.662   2.422  24.606  0.00  0.00    -0.299 OA
ENDBRANCH  18  19
BRANCH  18  21
ATOM     21  C   SER A   3       5.218   3.590  22.655  0.00  0.00    +0.185 C 
BRANCH  21  22
ATOM     22  O   SER A   3       4.372   3.038  21.647  0.00  0.00    -0.393 OA
ATOM     23  H   SER A   3       3.547   3.561  21.665  0.00  0.00    +0.209 HD
ENDBRANCH  21  22
ENDBRANCH  18  21
ENDBRANCH  15  18
ENDBRANCH   1  14
BRANCH   1  24
ATOM     24  CB  HIS A   2       8.130   0.027  20.129  0.00  0.00    +0.088 C 
BRANCH  24  25
ATOM     25  CG  HIS A   2       6.870   0.183  19.359  0.00  0.00    +0.061 A 
ATOM     26  CD2 HIS A   2       6.400  -0.565  18.302  0.00  0.00    +0.107 A 
ATOM     27  NE2 HIS A   2       5.229   0.033  17.933  0.00  0.00    -0.351 N 
ATOM     28  HE2 HIS A   2       4.620  -0.251  17.177  0.00  0.00    +0.166 HD
ATOM     29  CE1 HIS A   2       5.035   1.101  18.763  0.00  0.00    +0.196 A 
ATOM     30  ND1 HIS A   2       6.015   1.227  19.628  0.00  0.00    -0.241 NA
ENDBRANCH  24  25
ENDBRANCH   1  24
TORSDOF 12
ENDMDL
MODEL 17
REMARK VINA RESULT:      -5.9      3.023      6.502
REMARK  Name = LHS-mmff94.pdb
REMARK  14 active torsions:
REMARK  status: ('A' for Active; 'I' for Inactive)
REMARK    1  A    between atoms: _1  and  _2
REMARK    2  A    between atoms: _2  and  _3
REMARK    3  A    between atoms: _2  and  _5
REMARK    4  A    between atoms: _5  and  _6
REMARK    5  A    between atoms: _6  and  _7
REMARK    6  A    between atoms: _6  and  _8
REMARK    7  A    between atoms: _20  and  _21
REMARK    8  A    between atoms: _21  and  _22
REMARK    9  A    between atoms: _21  and  _24
REMARK   10  A    between atoms: _24  and  _25
REMARK   11  A    between atoms: _37  and  _38
REMARK   12  A    between atoms: _38  and  _39
REMARK   13  A    between atoms: _38  and  _41
REMARK   14  A    between atoms: _41  and  _42
REMARK                            x       y       z     vdW  Elec       q    Type
REMARK                         _______ _______ _______ _____ _____    ______ ____
ROOT
ATOM      1  CA  HIS A   2       9.732  -2.172  23.945  0.00  0.00    +0.165 C 
ENDROOT
BRANCH   1   3
ATOM      2  C   LEU A   1       9.024  -4.261  25.069  0.00  0.00    +0.230 C 
ATOM      3  N   HIS A   2       8.729  -2.995  24.626  0.00  0.00    -0.302 N 
ATOM      4  H   HIS A   2       7.841  -2.550  24.847  0.00  0.00    +0.150 HD
ATOM      5  O   LEU A   1      10.116  -4.793  24.869  0.00  0.00    -0.274 OA
BRANCH   2   6
ATOM      6  CA  LEU A   1       7.873  -4.984  25.804  0.00  0.00    +0.138 C 
BRANCH   6   7
ATOM      7  N   LEU A   1       8.380  -5.523  27.083  0.00  0.00    -0.320 NA
ATOM      8  H1  LEU A   1       7.861  -5.066  27.838  0.00  0.00    +0.119 HD
ATOM      9  H2  LEU A   1       8.071  -6.497  27.148  0.00  0.00    +0.119 HD
ENDBRANCH   6   7
BRANCH   6  10
ATOM     10  CB  LEU A   1       6.700  -4.019  26.035  0.00  0.00    +0.031 C 
BRANCH  10  11
ATOM     11  CG  LEU A   1       5.316  -4.549  25.606  0.00  0.00    -0.015 C 
ATOM     12  CD2 LEU A   1       4.469  -3.396  25.058  0.00  0.00    +0.007 C 
ATOM     13  CD1 LEU A   1       5.417  -5.660  24.561  0.00  0.00    +0.007 C 
ENDBRANCH  10  11
ENDBRANCH   6  10
ENDBRANCH   2   6
ENDBRANCH   1   3
BRANCH   1  14
ATOM     14  C   HIS A   2       9.672  -0.758  24.553  0.00  0.00    +0.234 C 
ATOM     15  N   SER A   3       9.933   0.283  23.691  0.00  0.00    -0.302 N 
ATOM     16  H   SER A   3       9.909   0.099  22.678  0.00  0.00    +0.150 HD
ATOM     17  O   HIS A   2       9.428  -0.577  25.748  0.00  0.00    -0.274 OA
BRANCH  15  18
ATOM     18  CA  SER A   3       9.785   1.672  24.125  0.00  0.00    +0.161 C 
BRANCH  18  19
ATOM     19  CB  SER A   3       8.316   2.071  24.147  0.00  0.00    +0.247 C 
ATOM     20  OG  SER A   3       7.634   2.238  23.139  0.00  0.00    -0.299 OA
ENDBRANCH  18  19
BRANCH  18  21
ATOM     21  C   SER A   3      10.551   2.653  23.228  0.00  0.00    +0.185 C 
BRANCH  21  22
ATOM     22  O   SER A   3      10.313   2.378  21.847  0.00  0.00    -0.393 OA
ATOM     23  H   SER A   3      11.155   2.551  21.384  0.00  0.00    +0.209 HD
ENDBRANCH  21  22
ENDBRANCH  18  21
ENDBRANCH  15  18
ENDBRANCH   1  14
BRANCH   1  24
ATOM     24  CB  HIS A   2       9.493  -2.118  22.431  0.00  0.00    +0.088 C 
BRANCH  24  25
ATOM     25  CG  HIS A   2       8.046  -2.227  22.122  0.00  0.00    +0.061 A 
ATOM     26  CD2 HIS A   2       7.124  -1.224  21.913  0.00  0.00    +0.107 A 
ATOM     27  NE2 HIS A   2       5.934  -1.866  21.720  0.00  0.00    -0.351 N 
ATOM     28  HE2 HIS A   2       5.038  -1.431  21.549  0.00  0.00    +0.166 HD
ATOM     29  CE1 HIS A   2       6.172  -3.208  21.817  0.00  0.00    +0.196 A 
ATOM     30  ND1 HIS A   2       7.436  -3.459  22.071  0.00  0.00    -0.241 NA
ENDBRANCH  24  25
ENDBRANCH   1  24
TORSDOF 12
ENDMDL
MODEL 18
REMARK VINA RESULT:      -5.9      2.318      4.376
REMARK  Name = LHS-mmff94.pdb
REMARK  14 active torsions:
REMARK  status: ('A' for Active; 'I' for Inactive)
REMARK    1  A    between atoms: _1  and  _2
REMARK    2  A    between atoms: _2  and  _3
REMARK    3  A    between atoms: _2  and  _5
REMARK    4  A    between atoms: _5  and  _6
REMARK    5  A    between atoms: _6  and  _7
REMARK    6  A    between atoms: _6  and  _8
REMARK    7  A    between atoms: _20  and  _21
REMARK    8  A    between atoms: _21  and  _22
REMARK    9  A    between atoms: _21  and  _24
REMARK   10  A    between atoms: _24  and  _25
REMARK   11  A    between atoms: _37  and  _38
REMARK   12  A    between atoms: _38  and  _39
REMARK   13  A    between atoms: _38  and  _41
REMARK   14  A    between atoms: _41  and  _42
REMARK                            x       y       z     vdW  Elec       q    Type
REMARK                         _______ _______ _______ _____ _____    ______ ____
ROOT
ATOM      1  CA  HIS A   2       8.228  -1.148  21.700  0.00  0.00    +0.165 C 
ENDROOT
BRANCH   1   3
ATOM      2  C   LEU A   1       7.273   0.973  20.854  0.00  0.00    +0.230 C 
ATOM      3  N   HIS A   2       7.671   0.191  21.910  0.00  0.00    -0.302 N 
ATOM      4  H   HIS A   2       7.497   0.471  22.872  0.00  0.00    +0.150 HD
ATOM      5  O   LEU A   1       7.415   0.623  19.683  0.00  0.00    -0.274 OA
BRANCH   2   6
ATOM      6  CA  LEU A   1       6.669   2.341  21.242  0.00  0.00    +0.138 C 
BRANCH   6   7
ATOM      7  N   LEU A   1       5.222   2.332  20.943  0.00  0.00    -0.320 NA
ATOM      8  H1  LEU A   1       5.022   3.145  20.355  0.00  0.00    +0.119 HD
ATOM      9  H2  LEU A   1       5.045   1.543  20.314  0.00  0.00    +0.119 HD
ENDBRANCH   6   7
BRANCH   6  10
ATOM     10  CB  LEU A   1       6.924   2.633  22.729  0.00  0.00    +0.031 C 
BRANCH  10  11
ATOM     11  CG  LEU A   1       7.795   3.874  23.017  0.00  0.00    -0.015 C 
ATOM     12  CD2 LEU A   1       7.245   5.080  22.248  0.00  0.00    +0.007 C 
ATOM     13  CD1 LEU A   1       7.869   4.200  24.508  0.00  0.00    +0.007 C 
ENDBRANCH  10  11
ENDBRANCH   6  10
ENDBRANCH   2   6
ENDBRANCH   1   3
BRANCH   1  14
ATOM     14  C   HIS A   2       7.414  -2.137  22.555  0.00  0.00    +0.234 C 
ATOM     15  N   SER A   3       8.027  -3.334  22.845  0.00  0.00    -0.302 N 
ATOM     16  H   SER A   3       9.044  -3.413  22.700  0.00  0.00    +0.150 HD
ATOM     17  O   HIS A   2       6.271  -1.874  22.935  0.00  0.00    -0.274 OA
BRANCH  15  18
ATOM     18  CA  SER A   3       7.401  -4.300  23.749  0.00  0.00    +0.161 C 
BRANCH  18  19
ATOM     19  CB  SER A   3       8.436  -4.891  24.697  0.00  0.00    +0.247 C 
ATOM     20  OG  SER A   3       9.287  -5.710  24.361  0.00  0.00    -0.299 OA
ENDBRANCH  18  19
BRANCH  18  21
ATOM     21  C   SER A   3       6.706  -5.443  22.999  0.00  0.00    +0.185 C 
BRANCH  21  22
ATOM     22  O   SER A   3       7.504  -5.899  21.907  0.00  0.00    -0.393 OA
ATOM     23  H   SER A   3       8.364  -6.160  22.286  0.00  0.00    +0.209 HD
ENDBRANCH  21  22
ENDBRANCH  18  21
ENDBRANCH  15  18
ENDBRANCH   1  14
BRANCH   1  24
ATOM     24  CB  HIS A   2       9.715  -1.212  22.072  0.00  0.00    +0.088 C 
BRANCH  24  25
ATOM     25  CG  HIS A   2      10.015  -0.299  23.203  0.00  0.00    +0.061 A 
ATOM     26  CD2 HIS A   2      10.004  -0.559  24.556  0.00  0.00    +0.107 A 
ATOM     27  NE2 HIS A   2      10.301   0.633  25.152  0.00  0.00    -0.351 N 
ATOM     28  HE2 HIS A   2      10.366   0.809  26.146  0.00  0.00    +0.166 HD
ATOM     29  CE1 HIS A   2      10.477   1.555  24.159  0.00  0.00    +0.196 A 
ATOM     30  ND1 HIS A   2      10.299   1.027  22.970  0.00  0.00    -0.241 NA
ENDBRANCH  24  25
ENDBRANCH   1  24
TORSDOF 12
ENDMDL
