REMARK  Name = LQS-mmff94.pdb
REMARK  15 active torsions:
REMARK  status: ('A' for Active; 'I' for Inactive)
REMARK    1  A    between atoms: _1  and  _2
REMARK    2  A    between atoms: _2  and  _3
REMARK    3  A    between atoms: _2  and  _5
REMARK    4  A    between atoms: _5  and  _6
REMARK    5  A    between atoms: _6  and  _7
REMARK    6  A    between atoms: _6  and  _8
REMARK    7  A    between atoms: _20  and  _21
REMARK    8  A    between atoms: _21  and  _22
REMARK    9  A    between atoms: _21  and  _24
REMARK   10  A    between atoms: _24  and  _25
REMARK   11  A    between atoms: _25  and  _26
REMARK   12  A    between atoms: _37  and  _38
REMARK   13  A    between atoms: _38  and  _39
REMARK   14  A    between atoms: _38  and  _41
REMARK   15  A    between atoms: _41  and  _42
REMARK                            x       y       z     vdW  Elec       q    Type
REMARK                         _______ _______ _______ _____ _____    ______ ____
ROOT
ATOM      1  CA  GLN A   2       4.921   0.113  -1.167  0.00  0.00    +0.159 C 
ENDROOT
BRANCH   1   3
ATOM      2  C   LEU A   1       2.744  -1.001  -0.723  0.00  0.00    +0.230 C 
ATOM      3  N   GLN A   2       3.461   0.108  -1.102  0.00  0.00    -0.303 N 
ATOM      4  H   GLN A   2       2.983   0.955  -1.398  0.00  0.00    +0.149 HD
ATOM      5  O   LEU A   1       3.285  -2.053  -0.387  0.00  0.00    -0.274 OA
BRANCH   2   6
ATOM      6  CA  LEU A   1       1.208  -0.827  -0.775  0.00  0.00    +0.138 C 
BRANCH   6   7
ATOM      7  N   LEU A   1       0.565  -2.154  -0.720  0.00  0.00    -0.320 NA
ATOM      8  H1  LEU A   1       0.972  -2.733  -1.457  0.00  0.00    +0.119 HD
ATOM      9  H2  LEU A   1       0.882  -2.614   0.139  0.00  0.00    +0.119 HD
ENDBRANCH   6   7
BRANCH   6  10
ATOM     10  CB  LEU A   1       0.741   0.068   0.385  0.00  0.00    +0.031 C 
BRANCH  10  11
ATOM     11  CG  LEU A   1      -0.783   0.295   0.470  0.00  0.00    -0.015 C 
ATOM     12  CD2 LEU A   1      -1.112   1.136   1.707  0.00  0.00    +0.007 C 
ATOM     13  CD1 LEU A   1      -1.341   0.976  -0.780  0.00  0.00    +0.007 C 
ENDBRANCH  10  11
ENDBRANCH   6  10
ENDBRANCH   2   6
ENDBRANCH   1   3
BRANCH   1  14
ATOM     14  C   GLN A   2       5.349   1.593  -1.131  0.00  0.00    +0.234 C 
ATOM     15  O   GLN A   2       4.604   2.500  -1.504  0.00  0.00    -0.274 OA
ATOM     16  N   SER A   3       6.621   1.832  -0.676  0.00  0.00    -0.302 N 
ATOM     17  H   SER A   3       7.260   1.061  -0.488  0.00  0.00    +0.150 HD
BRANCH  16  18
ATOM     18  CA  SER A   3       7.221   3.165  -0.724  0.00  0.00    +0.161 C 
BRANCH  18  19
ATOM     19  CB  SER A   3       8.728   3.007  -0.595  0.00  0.00    +0.247 C 
ATOM     20  OG  SER A   3       9.301   1.928  -0.750  0.00  0.00    -0.299 OA
ENDBRANCH  18  19
BRANCH  18  21
ATOM     21  C   SER A   3       6.699   4.087   0.381  0.00  0.00    +0.185 C 
BRANCH  21  22
ATOM     22  O   SER A   3       6.919   3.518   1.670  0.00  0.00    -0.393 OA
ATOM     23  H   SER A   3       6.392   2.699   1.709  0.00  0.00    +0.209 HD
ENDBRANCH  21  22
ENDBRANCH  18  21
ENDBRANCH  16  18
ENDBRANCH   1  14
BRANCH   1  24
ATOM     24  CB  GLN A   2       5.397  -0.588  -2.448  0.00  0.00    +0.041 C 
BRANCH  24  25
ATOM     25  CG  GLN A   2       6.911  -0.785  -2.518  0.00  0.00    +0.098 C 
BRANCH  25  26
ATOM     26  CD  GLN A   2       7.323  -1.866  -3.493  0.00  0.00    +0.211 C 
ATOM     27  OE1 GLN A   2       8.132  -2.742  -3.211  0.00  0.00    -0.276 OA
ATOM     28  NE2 GLN A   2       6.799  -1.785  -4.747  0.00  0.00    -0.329 N 
ATOM     29 HE21 GLN A   2       6.082  -1.129  -5.019  0.00  0.00    +0.145 HD
ATOM     30 HE22 GLN A   2       7.057  -2.513  -5.400  0.00  0.00    +0.145 HD
ENDBRANCH  25  26
ENDBRANCH  24  25
ENDBRANCH   1  24
TORSDOF 13
