MODEL 1
REMARK VINA RESULT:      -5.6      0.000      0.000
REMARK  Name = STC-mmff94.pdb
REMARK  13 active torsions:
REMARK  status: ('A' for Active; 'I' for Inactive)
REMARK    1  A    between atoms: _1  and  _2
REMARK    2  A    between atoms: _2  and  _3
REMARK    3  A    between atoms: _2  and  _5
REMARK    4  A    between atoms: _5  and  _6
REMARK    5  A    between atoms: _12  and  _13
REMARK    6  A    between atoms: _13  and  _14
REMARK    7  A    between atoms: _13  and  _16
REMARK    8  A    between atoms: _16  and  _17
REMARK    9  A    between atoms: _16  and  _18
REMARK   10  A    between atoms: _26  and  _27
REMARK   11  A    between atoms: _27  and  _28
REMARK   12  A    between atoms: _27  and  _30
REMARK   13  A    between atoms: _30  and  _31
REMARK                            x       y       z     vdW  Elec       q    Type
REMARK                         _______ _______ _______ _____ _____    ______ ____
ROOT
ATOM      1  CA  THR A   2       9.382   0.072  21.291  0.00  0.00    +0.187 C 
ENDROOT
BRANCH   1   4
ATOM      2  C   SER A   1       7.441   0.158  19.745  0.00  0.00    +0.233 C 
ATOM      3  O   SER A   1       8.117  -0.149  18.763  0.00  0.00    -0.274 OA
ATOM      4  N   THR A   2       7.950   0.223  21.021  0.00  0.00    -0.301 N 
ATOM      5  H   THR A   2       7.366   0.504  21.801  0.00  0.00    +0.150 HD
BRANCH   2   6
ATOM      6  CA  SER A   1       5.943   0.513  19.634  0.00  0.00    +0.163 C 
BRANCH   6   7
ATOM      7  N   SER A   1       5.674   1.772  20.382  0.00  0.00    -0.318 NA
ATOM      8  H1  SER A   1       6.571   2.254  20.486  0.00  0.00    +0.119 HD
ATOM      9  H2  SER A   1       5.183   2.386  19.717  0.00  0.00    +0.119 HD
ENDBRANCH   6   7
BRANCH   6  10
ATOM     10  CB  SER A   1       5.521   0.641  18.163  0.00  0.00    +0.183 C 
BRANCH  10  11
ATOM     11  OG  SER A   1       5.645  -0.610  17.481  0.00  0.00    -0.393 OA
ATOM     12  H   SER A   1       5.671  -0.369  16.532  0.00  0.00    +0.209 HD
ENDBRANCH  10  11
ENDBRANCH   6  10
ENDBRANCH   2   6
ENDBRANCH   1   4
BRANCH   1  13
ATOM     13  C   THR A   2       9.524  -1.203  22.137  0.00  0.00    +0.236 C 
ATOM     14  O   THR A   2      10.577  -1.837  22.203  0.00  0.00    -0.274 OA
ATOM     15  N   CYS A   3       8.378  -1.624  22.767  0.00  0.00    -0.304 N 
ATOM     16  H   CYS A   3       7.530  -1.059  22.734  0.00  0.00    +0.149 HD
BRANCH  15  17
ATOM     17  CA  CYS A   3       8.329  -2.847  23.568  0.00  0.00    +0.145 C 
BRANCH  17  18
ATOM     18  C   CYS A   3       7.468  -3.832  22.790  0.00  0.00    +0.246 C 
ATOM     19  O   CYS A   3       7.608  -5.054  22.858  0.00  0.00    -0.299 OA
ENDBRANCH  17  18
BRANCH  17  20
ATOM     20  CB  CYS A   3       7.751  -2.592  24.963  0.00  0.00    +0.095 C 
BRANCH  20  21
ATOM     21  SG  CYS A   3       8.415  -3.724  26.231  0.00  0.00    -0.176 S 
ATOM     22  HG  CYS A   3       7.807  -4.838  25.793  0.00  0.00    +0.102 HD
ENDBRANCH  20  21
ENDBRANCH  17  20
ENDBRANCH  15  17
ENDBRANCH   1  13
BRANCH   1  23
ATOM     23  CB  THR A   2       9.946   1.281  22.078  0.00  0.00    +0.141 C 
ATOM     24  CG2 THR A   2       8.902   2.372  22.303  0.00  0.00    +0.040 C 
BRANCH  23  25
ATOM     25  OG1 THR A   2      10.432   0.863  23.362  0.00  0.00    -0.390 OA
ATOM     26  HG1 THR A   2      11.257   0.365  23.226  0.00  0.00    +0.210 HD
ENDBRANCH  23  25
ENDBRANCH   1  23
TORSDOF 12
ENDMDL
MODEL 2
REMARK VINA RESULT:      -5.6      2.070      2.101
REMARK  Name = STC-mmff94.pdb
REMARK  13 active torsions:
REMARK  status: ('A' for Active; 'I' for Inactive)
REMARK    1  A    between atoms: _1  and  _2
REMARK    2  A    between atoms: _2  and  _3
REMARK    3  A    between atoms: _2  and  _5
REMARK    4  A    between atoms: _5  and  _6
REMARK    5  A    between atoms: _12  and  _13
REMARK    6  A    between atoms: _13  and  _14
REMARK    7  A    between atoms: _13  and  _16
REMARK    8  A    between atoms: _16  and  _17
REMARK    9  A    between atoms: _16  and  _18
REMARK   10  A    between atoms: _26  and  _27
REMARK   11  A    between atoms: _27  and  _28
REMARK   12  A    between atoms: _27  and  _30
REMARK   13  A    between atoms: _30  and  _31
REMARK                            x       y       z     vdW  Elec       q    Type
REMARK                         _______ _______ _______ _____ _____    ______ ____
ROOT
ATOM      1  CA  THR A   2       8.827   0.337  20.992  0.00  0.00    +0.187 C 
ENDROOT
BRANCH   1   4
ATOM      2  C   SER A   1       7.402   0.302  18.958  0.00  0.00    +0.233 C 
ATOM      3  O   SER A   1       8.168  -0.443  18.347  0.00  0.00    -0.274 OA
ATOM      4  N   THR A   2       7.601   0.680  20.265  0.00  0.00    -0.301 N 
ATOM      5  H   THR A   2       6.961   1.316  20.727  0.00  0.00    +0.150 HD
BRANCH   2   6
ATOM      6  CA  SER A   1       6.138   0.899  18.305  0.00  0.00    +0.163 C 
BRANCH   6   7
ATOM      7  N   SER A   1       5.441  -0.156  17.517  0.00  0.00    -0.318 NA
ATOM      8  H1  SER A   1       4.488  -0.221  17.884  0.00  0.00    +0.119 HD
ATOM      9  H2  SER A   1       5.279   0.260  16.588  0.00  0.00    +0.119 HD
ENDBRANCH   6   7
BRANCH   6  10
ATOM     10  CB  SER A   1       5.209   1.504  19.367  0.00  0.00    +0.183 C 
BRANCH  10  11
ATOM     11  OG  SER A   1       4.127   2.214  18.760  0.00  0.00    -0.393 OA
ATOM     12  H   SER A   1       3.388   2.123  19.395  0.00  0.00    +0.209 HD
ENDBRANCH  10  11
ENDBRANCH   6  10
ENDBRANCH   2   6
ENDBRANCH   1   4
BRANCH   1  13
ATOM     13  C   THR A   2       8.509  -0.940  21.785  0.00  0.00    +0.236 C 
ATOM     14  O   THR A   2       9.351  -1.814  21.991  0.00  0.00    -0.274 OA
ATOM     15  N   CYS A   3       7.206  -1.069  22.198  0.00  0.00    -0.304 N 
ATOM     16  H   CYS A   3       6.539  -0.312  22.056  0.00  0.00    +0.149 HD
BRANCH  15  17
ATOM     17  CA  CYS A   3       6.726  -2.248  22.919  0.00  0.00    +0.145 C 
BRANCH  17  18
ATOM     18  C   CYS A   3       5.911  -3.057  21.919  0.00  0.00    +0.246 C 
ATOM     19  O   CYS A   3       5.627  -2.651  20.792  0.00  0.00    -0.299 OA
ENDBRANCH  17  18
BRANCH  17  20
ATOM     20  CB  CYS A   3       5.882  -1.867  24.138  0.00  0.00    +0.095 C 
BRANCH  20  21
ATOM     21  SG  CYS A   3       6.096  -0.126  24.641  0.00  0.00    -0.176 S 
ATOM     22  HG  CYS A   3       4.933   0.002  25.298  0.00  0.00    +0.102 HD
ENDBRANCH  20  21
ENDBRANCH  17  20
ENDBRANCH  15  17
ENDBRANCH   1  13
BRANCH   1  23
ATOM     23  CB  THR A   2       9.246   1.464  21.970  0.00  0.00    +0.141 C 
ATOM     24  CG2 THR A   2       8.192   2.562  22.084  0.00  0.00    +0.040 C 
BRANCH  23  25
ATOM     25  OG1 THR A   2       9.473   0.931  23.283  0.00  0.00    -0.390 OA
ATOM     26  HG1 THR A   2      10.344   0.497  23.287  0.00  0.00    +0.210 HD
ENDBRANCH  23  25
ENDBRANCH   1  23
TORSDOF 12
ENDMDL
MODEL 3
REMARK VINA RESULT:      -5.5      1.929      2.101
REMARK  Name = STC-mmff94.pdb
REMARK  13 active torsions:
REMARK  status: ('A' for Active; 'I' for Inactive)
REMARK    1  A    between atoms: _1  and  _2
REMARK    2  A    between atoms: _2  and  _3
REMARK    3  A    between atoms: _2  and  _5
REMARK    4  A    between atoms: _5  and  _6
REMARK    5  A    between atoms: _12  and  _13
REMARK    6  A    between atoms: _13  and  _14
REMARK    7  A    between atoms: _13  and  _16
REMARK    8  A    between atoms: _16  and  _17
REMARK    9  A    between atoms: _16  and  _18
REMARK   10  A    between atoms: _26  and  _27
REMARK   11  A    between atoms: _27  and  _28
REMARK   12  A    between atoms: _27  and  _30
REMARK   13  A    between atoms: _30  and  _31
REMARK                            x       y       z     vdW  Elec       q    Type
REMARK                         _______ _______ _______ _____ _____    ______ ____
ROOT
ATOM      1  CA  THR A   2       8.544  -0.276  21.150  0.00  0.00    +0.187 C 
ENDROOT
BRANCH   1   4
ATOM      2  C   SER A   1       7.393   0.135  18.988  0.00  0.00    +0.233 C 
ATOM      3  O   SER A   1       8.267  -0.430  18.332  0.00  0.00    -0.274 OA
ATOM      4  N   THR A   2       7.405   0.202  20.362  0.00  0.00    -0.301 N 
ATOM      5  H   THR A   2       6.679   0.699  20.866  0.00  0.00    +0.150 HD
BRANCH   2   6
ATOM      6  CA  SER A   1       6.193   0.842  18.323  0.00  0.00    +0.163 C 
BRANCH   6   7
ATOM      7  N   SER A   1       5.449  -0.132  17.478  0.00  0.00    -0.318 NA
ATOM      8  H1  SER A   1       5.618   0.129  16.502  0.00  0.00    +0.119 HD
ATOM      9  H2  SER A   1       5.974  -1.015  17.551  0.00  0.00    +0.119 HD
ENDBRANCH   6   7
BRANCH   6  10
ATOM     10  CB  SER A   1       5.276   1.472  19.382  0.00  0.00    +0.183 C 
BRANCH  10  11
ATOM     11  OG  SER A   1       4.205   2.194  18.770  0.00  0.00    -0.393 OA
ATOM     12  H   SER A   1       3.749   2.633  19.518  0.00  0.00    +0.209 HD
ENDBRANCH  10  11
ENDBRANCH   6  10
ENDBRANCH   2   6
ENDBRANCH   1   4
BRANCH   1  13
ATOM     13  C   THR A   2       7.951  -1.115  22.292  0.00  0.00    +0.236 C 
ATOM     14  O   THR A   2       6.977  -0.743  22.947  0.00  0.00    -0.274 OA
ATOM     15  N   CYS A   3       8.618  -2.282  22.574  0.00  0.00    -0.304 N 
ATOM     16  H   CYS A   3       9.394  -2.591  21.989  0.00  0.00    +0.149 HD
BRANCH  15  17
ATOM     17  CA  CYS A   3       8.215  -3.170  23.664  0.00  0.00    +0.145 C 
BRANCH  17  18
ATOM     18  C   CYS A   3       9.461  -3.403  24.508  0.00  0.00    +0.246 C 
ATOM     19  O   CYS A   3      10.006  -4.501  24.622  0.00  0.00    -0.299 OA
ENDBRANCH  17  18
BRANCH  17  20
ATOM     20  CB  CYS A   3       7.648  -4.493  23.142  0.00  0.00    +0.095 C 
BRANCH  20  21
ATOM     21  SG  CYS A   3       6.246  -5.112  24.133  0.00  0.00    -0.176 S 
ATOM     22  HG  CYS A   3       6.263  -6.374  23.676  0.00  0.00    +0.102 HD
ENDBRANCH  20  21
ENDBRANCH  17  20
ENDBRANCH  15  17
ENDBRANCH   1  13
BRANCH   1  23
ATOM     23  CB  THR A   2       9.363   0.899  21.740  0.00  0.00    +0.141 C 
ATOM     24  CG2 THR A   2       8.545   2.182  21.860  0.00  0.00    +0.040 C 
BRANCH  23  25
ATOM     25  OG1 THR A   2       9.853   0.564  23.047  0.00  0.00    -0.390 OA
ATOM     26  HG1 THR A   2       9.373  -0.222  23.358  0.00  0.00    +0.210 HD
ENDBRANCH  23  25
ENDBRANCH   1  23
TORSDOF 12
ENDMDL
MODEL 4
REMARK VINA RESULT:      -5.3      1.981      2.260
REMARK  Name = STC-mmff94.pdb
REMARK  13 active torsions:
REMARK  status: ('A' for Active; 'I' for Inactive)
REMARK    1  A    between atoms: _1  and  _2
REMARK    2  A    between atoms: _2  and  _3
REMARK    3  A    between atoms: _2  and  _5
REMARK    4  A    between atoms: _5  and  _6
REMARK    5  A    between atoms: _12  and  _13
REMARK    6  A    between atoms: _13  and  _14
REMARK    7  A    between atoms: _13  and  _16
REMARK    8  A    between atoms: _16  and  _17
REMARK    9  A    between atoms: _16  and  _18
REMARK   10  A    between atoms: _26  and  _27
REMARK   11  A    between atoms: _27  and  _28
REMARK   12  A    between atoms: _27  and  _30
REMARK   13  A    between atoms: _30  and  _31
REMARK                            x       y       z     vdW  Elec       q    Type
REMARK                         _______ _______ _______ _____ _____    ______ ____
ROOT
ATOM      1  CA  THR A   2       8.358  -0.867  21.184  0.00  0.00    +0.187 C 
ENDROOT
BRANCH   1   4
ATOM      2  C   SER A   1       6.306  -0.293  19.909  0.00  0.00    +0.233 C 
ATOM      3  O   SER A   1       6.116  -1.455  19.551  0.00  0.00    -0.274 OA
ATOM      4  N   THR A   2       7.325   0.079  20.755  0.00  0.00    -0.301 N 
ATOM      5  H   THR A   2       7.464   1.051  21.007  0.00  0.00    +0.150 HD
BRANCH   2   6
ATOM      6  CA  SER A   1       5.416   0.872  19.428  0.00  0.00    +0.163 C 
BRANCH   6   7
ATOM      7  N   SER A   1       5.482   1.987  20.412  0.00  0.00    -0.318 NA
ATOM      8  H1  SER A   1       5.517   1.562  21.343  0.00  0.00    +0.119 HD
ATOM      9  H2  SER A   1       6.433   2.374  20.324  0.00  0.00    +0.119 HD
ENDBRANCH   6   7
BRANCH   6  10
ATOM     10  CB  SER A   1       5.840   1.340  18.028  0.00  0.00    +0.183 C 
BRANCH  10  11
ATOM     11  OG  SER A   1       7.202   0.996  17.762  0.00  0.00    -0.393 OA
ATOM     12  H   SER A   1       7.722   1.601  18.330  0.00  0.00    +0.209 HD
ENDBRANCH  10  11
ENDBRANCH   6  10
ENDBRANCH   2   6
ENDBRANCH   1   4
BRANCH   1  13
ATOM     13  C   THR A   2       7.778  -1.613  22.395  0.00  0.00    +0.236 C 
ATOM     14  O   THR A   2       7.102  -1.048  23.255  0.00  0.00    -0.274 OA
ATOM     15  N   CYS A   3       8.114  -2.941  22.486  0.00  0.00    -0.304 N 
ATOM     16  H   CYS A   3       8.636  -3.398  21.739  0.00  0.00    +0.149 HD
BRANCH  15  17
ATOM     17  CA  CYS A   3       7.687  -3.783  23.605  0.00  0.00    +0.145 C 
BRANCH  17  18
ATOM     18  C   CYS A   3       8.882  -3.886  24.541  0.00  0.00    +0.246 C 
ATOM     19  O   CYS A   3      10.012  -3.499  24.242  0.00  0.00    -0.299 OA
ENDBRANCH  17  18
BRANCH  17  20
ATOM     20  CB  CYS A   3       7.232  -5.167  23.136  0.00  0.00    +0.095 C 
BRANCH  20  21
ATOM     21  SG  CYS A   3       6.307  -5.123  21.564  0.00  0.00    -0.176 S 
ATOM     22  HG  CYS A   3       6.871  -4.010  21.070  0.00  0.00    +0.102 HD
ENDBRANCH  20  21
ENDBRANCH  17  20
ENDBRANCH  15  17
ENDBRANCH   1  13
BRANCH   1  23
ATOM     23  CB  THR A   2       9.662  -0.140  21.599  0.00  0.00    +0.141 C 
ATOM     24  CG2 THR A   2       9.459   1.360  21.795  0.00  0.00    +0.040 C 
BRANCH  23  25
ATOM     25  OG1 THR A   2      10.171  -0.681  22.826  0.00  0.00    -0.390 OA
ATOM     26  HG1 THR A   2      10.527   0.052  23.356  0.00  0.00    +0.210 HD
ENDBRANCH  23  25
ENDBRANCH   1  23
TORSDOF 12
ENDMDL
MODEL 5
REMARK VINA RESULT:      -5.3      2.810      3.256
REMARK  Name = STC-mmff94.pdb
REMARK  13 active torsions:
REMARK  status: ('A' for Active; 'I' for Inactive)
REMARK    1  A    between atoms: _1  and  _2
REMARK    2  A    between atoms: _2  and  _3
REMARK    3  A    between atoms: _2  and  _5
REMARK    4  A    between atoms: _5  and  _6
REMARK    5  A    between atoms: _12  and  _13
REMARK    6  A    between atoms: _13  and  _14
REMARK    7  A    between atoms: _13  and  _16
REMARK    8  A    between atoms: _16  and  _17
REMARK    9  A    between atoms: _16  and  _18
REMARK   10  A    between atoms: _26  and  _27
REMARK   11  A    between atoms: _27  and  _28
REMARK   12  A    between atoms: _27  and  _30
REMARK   13  A    between atoms: _30  and  _31
REMARK                            x       y       z     vdW  Elec       q    Type
REMARK                         _______ _______ _______ _____ _____    ______ ____
ROOT
ATOM      1  CA  THR A   2       6.935  -1.414  21.572  0.00  0.00    +0.187 C 
ENDROOT
BRANCH   1   4
ATOM      2  C   SER A   1       6.926  -0.065  19.487  0.00  0.00    +0.233 C 
ATOM      3  O   SER A   1       8.148  -0.129  19.354  0.00  0.00    -0.274 OA
ATOM      4  N   THR A   2       6.241  -0.710  20.490  0.00  0.00    -0.301 N 
ATOM      5  H   THR A   2       5.236  -0.612  20.581  0.00  0.00    +0.150 HD
BRANCH   2   6
ATOM      6  CA  SER A   1       6.038   0.765  18.536  0.00  0.00    +0.163 C 
BRANCH   6   7
ATOM      7  N   SER A   1       5.515  -0.112  17.452  0.00  0.00    -0.318 NA
ATOM      8  H1  SER A   1       5.851   0.276  16.567  0.00  0.00    +0.119 HD
ATOM      9  H2  SER A   1       6.060  -0.983  17.519  0.00  0.00    +0.119 HD
ENDBRANCH   6   7
BRANCH   6  10
ATOM     10  CB  SER A   1       4.893   1.437  19.308  0.00  0.00    +0.183 C 
BRANCH  10  11
ATOM     11  OG  SER A   1       5.385   2.134  20.456  0.00  0.00    -0.393 OA
ATOM     12  H   SER A   1       4.924   2.997  20.434  0.00  0.00    +0.209 HD
ENDBRANCH  10  11
ENDBRANCH   6  10
ENDBRANCH   2   6
ENDBRANCH   1   4
BRANCH   1  13
ATOM     13  C   THR A   2       6.048  -2.614  21.938  0.00  0.00    +0.236 C 
ATOM     14  O   THR A   2       5.578  -3.370  21.088  0.00  0.00    -0.274 OA
ATOM     15  N   CYS A   3       5.765  -2.751  23.275  0.00  0.00    -0.304 N 
ATOM     16  H   CYS A   3       6.201  -2.140  23.964  0.00  0.00    +0.149 HD
BRANCH  15  17
ATOM     17  CA  CYS A   3       4.893  -3.810  23.786  0.00  0.00    +0.145 C 
BRANCH  17  18
ATOM     18  C   CYS A   3       4.087  -3.189  24.919  0.00  0.00    +0.246 C 
ATOM     19  O   CYS A   3       4.308  -2.065  25.370  0.00  0.00    -0.299 OA
ENDBRANCH  17  18
BRANCH  17  20
ATOM     20  CB  CYS A   3       5.693  -5.020  24.276  0.00  0.00    +0.095 C 
BRANCH  20  21
ATOM     21  SG  CYS A   3       7.081  -4.565  25.368  0.00  0.00    -0.176 S 
ATOM     22  HG  CYS A   3       7.112  -3.258  25.063  0.00  0.00    +0.102 HD
ENDBRANCH  20  21
ENDBRANCH  17  20
ENDBRANCH  15  17
ENDBRANCH   1  13
BRANCH   1  23
ATOM     23  CB  THR A   2       7.121  -0.508  22.815  0.00  0.00    +0.141 C 
ATOM     24  CG2 THR A   2       8.502   0.141  22.866  0.00  0.00    +0.040 C 
BRANCH  23  25
ATOM     25  OG1 THR A   2       6.140   0.539  22.826  0.00  0.00    -0.390 OA
ATOM     26  HG1 THR A   2       6.421   1.225  22.196  0.00  0.00    +0.210 HD
ENDBRANCH  23  25
ENDBRANCH   1  23
TORSDOF 12
ENDMDL
MODEL 6
REMARK VINA RESULT:      -5.3      2.369      2.597
REMARK  Name = STC-mmff94.pdb
REMARK  13 active torsions:
REMARK  status: ('A' for Active; 'I' for Inactive)
REMARK    1  A    between atoms: _1  and  _2
REMARK    2  A    between atoms: _2  and  _3
REMARK    3  A    between atoms: _2  and  _5
REMARK    4  A    between atoms: _5  and  _6
REMARK    5  A    between atoms: _12  and  _13
REMARK    6  A    between atoms: _13  and  _14
REMARK    7  A    between atoms: _13  and  _16
REMARK    8  A    between atoms: _16  and  _17
REMARK    9  A    between atoms: _16  and  _18
REMARK   10  A    between atoms: _26  and  _27
REMARK   11  A    between atoms: _27  and  _28
REMARK   12  A    between atoms: _27  and  _30
REMARK   13  A    between atoms: _30  and  _31
REMARK                            x       y       z     vdW  Elec       q    Type
REMARK                         _______ _______ _______ _____ _____    ______ ____
ROOT
ATOM      1  CA  THR A   2       7.868  -0.366  21.558  0.00  0.00    +0.187 C 
ENDROOT
BRANCH   1   4
ATOM      2  C   SER A   1       7.062   0.171  19.271  0.00  0.00    +0.233 C 
ATOM      3  O   SER A   1       8.123  -0.156  18.742  0.00  0.00    -0.274 OA
ATOM      4  N   THR A   2       6.819   0.041  20.619  0.00  0.00    -0.301 N 
ATOM      5  H   THR A   2       5.940   0.346  21.022  0.00  0.00    +0.150 HD
BRANCH   2   6
ATOM      6  CA  SER A   1       5.893   0.776  18.466  0.00  0.00    +0.163 C 
BRANCH   6   7
ATOM      7  N   SER A   1       5.431  -0.207  17.446  0.00  0.00    -0.318 NA
ATOM      8  H1  SER A   1       5.777   0.119  16.540  0.00  0.00    +0.119 HD
ATOM      9  H2  SER A   1       6.005  -1.048  17.598  0.00  0.00    +0.119 HD
ENDBRANCH   6   7
BRANCH   6  10
ATOM     10  CB  SER A   1       4.745   1.190  19.398  0.00  0.00    +0.183 C 
BRANCH  10  11
ATOM     11  OG  SER A   1       5.144   2.254  20.265  0.00  0.00    -0.393 OA
ATOM     12  H   SER A   1       4.336   2.796  20.375  0.00  0.00    +0.209 HD
ENDBRANCH  10  11
ENDBRANCH   6  10
ENDBRANCH   2   6
ENDBRANCH   1   4
BRANCH   1  13
ATOM     13  C   THR A   2       7.243  -1.449  22.451  0.00  0.00    +0.236 C 
ATOM     14  O   THR A   2       6.384  -1.193  23.294  0.00  0.00    -0.274 OA
ATOM     15  N   CYS A   3       7.752  -2.714  22.287  0.00  0.00    -0.304 N 
ATOM     16  H   CYS A   3       8.430  -2.910  21.551  0.00  0.00    +0.149 HD
BRANCH  15  17
ATOM     17  CA  CYS A   3       7.304  -3.849  23.095  0.00  0.00    +0.145 C 
BRANCH  17  18
ATOM     18  C   CYS A   3       8.444  -4.168  24.052  0.00  0.00    +0.246 C 
ATOM     19  O   CYS A   3       8.928  -5.293  24.177  0.00  0.00    -0.299 OA
ENDBRANCH  17  18
BRANCH  17  20
ATOM     20  CB  CYS A   3       6.955  -5.063  22.229  0.00  0.00    +0.095 C 
BRANCH  20  21
ATOM     21  SG  CYS A   3       5.357  -5.823  22.672  0.00  0.00    -0.176 S 
ATOM     22  HG  CYS A   3       4.621  -4.701  22.627  0.00  0.00    +0.102 HD
ENDBRANCH  20  21
ENDBRANCH  17  20
ENDBRANCH  15  17
ENDBRANCH   1  13
BRANCH   1  23
ATOM     23  CB  THR A   2       8.342   0.819  22.435  0.00  0.00    +0.141 C 
ATOM     24  CG2 THR A   2       9.576   1.514  21.864  0.00  0.00    +0.040 C 
BRANCH  23  25
ATOM     25  OG1 THR A   2       7.302   1.800  22.560  0.00  0.00    -0.390 OA
ATOM     26  HG1 THR A   2       7.435   2.473  21.871  0.00  0.00    +0.210 HD
ENDBRANCH  23  25
ENDBRANCH   1  23
TORSDOF 12
ENDMDL
MODEL 7
REMARK VINA RESULT:      -5.3      2.489      4.492
REMARK  Name = STC-mmff94.pdb
REMARK  13 active torsions:
REMARK  status: ('A' for Active; 'I' for Inactive)
REMARK    1  A    between atoms: _1  and  _2
REMARK    2  A    between atoms: _2  and  _3
REMARK    3  A    between atoms: _2  and  _5
REMARK    4  A    between atoms: _5  and  _6
REMARK    5  A    between atoms: _12  and  _13
REMARK    6  A    between atoms: _13  and  _14
REMARK    7  A    between atoms: _13  and  _16
REMARK    8  A    between atoms: _16  and  _17
REMARK    9  A    between atoms: _16  and  _18
REMARK   10  A    between atoms: _26  and  _27
REMARK   11  A    between atoms: _27  and  _28
REMARK   12  A    between atoms: _27  and  _30
REMARK   13  A    between atoms: _30  and  _31
REMARK                            x       y       z     vdW  Elec       q    Type
REMARK                         _______ _______ _______ _____ _____    ______ ____
ROOT
ATOM      1  CA  THR A   2       6.511  -0.283  20.277  0.00  0.00    +0.187 C 
ENDROOT
BRANCH   1   4
ATOM      2  C   SER A   1       8.293   0.978  21.462  0.00  0.00    +0.233 C 
ATOM      3  O   SER A   1       7.549   1.921  21.726  0.00  0.00    -0.274 OA
ATOM      4  N   THR A   2       7.865  -0.163  20.823  0.00  0.00    -0.301 N 
ATOM      5  H   THR A   2       8.514  -0.910  20.600  0.00  0.00    +0.150 HD
BRANCH   2   6
ATOM      6  CA  SER A   1       9.795   0.990  21.814  0.00  0.00    +0.163 C 
BRANCH   6   7
ATOM      7  N   SER A   1      10.303   2.389  21.776  0.00  0.00    -0.318 NA
ATOM      8  H1  SER A   1      11.229   2.382  22.212  0.00  0.00    +0.119 HD
ATOM      9  H2  SER A   1      10.539   2.568  20.789  0.00  0.00    +0.119 HD
ENDBRANCH   6   7
BRANCH   6  10
ATOM     10  CB  SER A   1      10.038   0.348  23.187  0.00  0.00    +0.183 C 
BRANCH  10  11
ATOM     11  OG  SER A   1       8.805  -0.021  23.809  0.00  0.00    -0.393 OA
ATOM     12  H   SER A   1       8.950   0.150  24.762  0.00  0.00    +0.209 HD
ENDBRANCH  10  11
ENDBRANCH   6  10
ENDBRANCH   2   6
ENDBRANCH   1   4
BRANCH   1  13
ATOM     13  C   THR A   2       6.022  -1.690  20.653  0.00  0.00    +0.236 C 
ATOM     14  O   THR A   2       5.520  -2.456  19.829  0.00  0.00    -0.274 OA
ATOM     15  N   CYS A   3       6.127  -2.015  21.983  0.00  0.00    -0.304 N 
ATOM     16  H   CYS A   3       6.588  -1.383  22.637  0.00  0.00    +0.149 HD
BRANCH  15  17
ATOM     17  CA  CYS A   3       5.660  -3.296  22.516  0.00  0.00    +0.145 C 
BRANCH  17  18
ATOM     18  C   CYS A   3       5.227  -3.028  23.950  0.00  0.00    +0.246 C 
ATOM     19  O   CYS A   3       5.131  -1.898  24.429  0.00  0.00    -0.299 OA
ENDBRANCH  17  18
BRANCH  17  20
ATOM     20  CB  CYS A   3       6.751  -4.369  22.460  0.00  0.00    +0.095 C 
BRANCH  20  21
ATOM     21  SG  CYS A   3       6.356  -5.732  21.314  0.00  0.00    -0.176 S 
ATOM     22  HG  CYS A   3       7.436  -5.606  20.527  0.00  0.00    +0.102 HD
ENDBRANCH  20  21
ENDBRANCH  17  20
ENDBRANCH  15  17
ENDBRANCH   1  13
BRANCH   1  23
ATOM     23  CB  THR A   2       6.500  -0.125  18.736  0.00  0.00    +0.141 C 
ATOM     24  CG2 THR A   2       5.624   1.035  18.272  0.00  0.00    +0.040 C 
BRANCH  23  25
ATOM     25  OG1 THR A   2       7.830   0.101  18.244  0.00  0.00    -0.390 OA
ATOM     26  HG1 THR A   2       8.455  -0.076  18.968  0.00  0.00    +0.210 HD
ENDBRANCH  23  25
ENDBRANCH   1  23
TORSDOF 12
ENDMDL
MODEL 8
REMARK VINA RESULT:      -5.1      3.039      6.509
REMARK  Name = STC-mmff94.pdb
REMARK  13 active torsions:
REMARK  status: ('A' for Active; 'I' for Inactive)
REMARK    1  A    between atoms: _1  and  _2
REMARK    2  A    between atoms: _2  and  _3
REMARK    3  A    between atoms: _2  and  _5
REMARK    4  A    between atoms: _5  and  _6
REMARK    5  A    between atoms: _12  and  _13
REMARK    6  A    between atoms: _13  and  _14
REMARK    7  A    between atoms: _13  and  _16
REMARK    8  A    between atoms: _16  and  _17
REMARK    9  A    between atoms: _16  and  _18
REMARK   10  A    between atoms: _26  and  _27
REMARK   11  A    between atoms: _27  and  _28
REMARK   12  A    between atoms: _27  and  _30
REMARK   13  A    between atoms: _30  and  _31
REMARK                            x       y       z     vdW  Elec       q    Type
REMARK                         _______ _______ _______ _____ _____    ______ ____
ROOT
ATOM      1  CA  THR A   2       7.742  -2.503  22.617  0.00  0.00    +0.187 C 
ENDROOT
BRANCH   1   4
ATOM      2  C   SER A   1       9.004  -3.837  24.289  0.00  0.00    +0.233 C 
ATOM      3  O   SER A   1      10.060  -3.246  24.071  0.00  0.00    -0.274 OA
ATOM      4  N   THR A   2       7.814  -3.505  23.684  0.00  0.00    -0.301 N 
ATOM      5  H   THR A   2       6.969  -4.033  23.871  0.00  0.00    +0.150 HD
BRANCH   2   6
ATOM      6  CA  SER A   1       8.915  -5.031  25.263  0.00  0.00    +0.163 C 
BRANCH   6   7
ATOM      7  N   SER A   1      10.274  -5.599  25.477  0.00  0.00    -0.318 NA
ATOM      8  H1  SER A   1      10.174  -6.618  25.484  0.00  0.00    +0.119 HD
ATOM      9  H2  SER A   1      10.778  -5.445  24.592  0.00  0.00    +0.119 HD
ENDBRANCH   6   7
BRANCH   6  10
ATOM     10  CB  SER A   1       8.276  -4.603  26.592  0.00  0.00    +0.183 C 
BRANCH  10  11
ATOM     11  OG  SER A   1       8.003  -5.736  27.420  0.00  0.00    -0.393 OA
ATOM     12  H   SER A   1       8.869  -6.185  27.511  0.00  0.00    +0.209 HD
ENDBRANCH  10  11
ENDBRANCH   6  10
ENDBRANCH   2   6
ENDBRANCH   1   4
BRANCH   1  13
ATOM     13  C   THR A   2       7.669  -1.137  23.318  0.00  0.00    +0.236 C 
ATOM     14  O   THR A   2       6.988  -0.949  24.325  0.00  0.00    -0.274 OA
ATOM     15  N   CYS A   3       8.369  -0.125  22.709  0.00  0.00    -0.304 N 
ATOM     16  H   CYS A   3       8.963  -0.315  21.902  0.00  0.00    +0.149 HD
BRANCH  15  17
ATOM     17  CA  CYS A   3       8.363   1.247  23.218  0.00  0.00    +0.145 C 
BRANCH  17  18
ATOM     18  C   CYS A   3       7.572   2.072  22.213  0.00  0.00    +0.246 C 
ATOM     19  O   CYS A   3       6.900   1.574  21.309  0.00  0.00    -0.299 OA
ENDBRANCH  17  18
BRANCH  17  20
ATOM     20  CB  CYS A   3       9.781   1.799  23.389  0.00  0.00    +0.095 C 
BRANCH  20  21
ATOM     21  SG  CYS A   3      10.833   0.752  24.450  0.00  0.00    -0.176 S 
ATOM     22  HG  CYS A   3      10.451   1.272  25.627  0.00  0.00    +0.102 HD
ENDBRANCH  20  21
ENDBRANCH  17  20
ENDBRANCH  15  17
ENDBRANCH   1  13
BRANCH   1  23
ATOM     23  CB  THR A   2       6.485  -2.699  21.732  0.00  0.00    +0.141 C 
ATOM     24  CG2 THR A   2       5.370  -3.448  22.457  0.00  0.00    +0.040 C 
BRANCH  23  25
ATOM     25  OG1 THR A   2       5.964  -1.431  21.310  0.00  0.00    -0.390 OA
ATOM     26  HG1 THR A   2       5.211  -1.207  21.883  0.00  0.00    +0.210 HD
ENDBRANCH  23  25
ENDBRANCH   1  23
TORSDOF 12
ENDMDL
MODEL 9
REMARK VINA RESULT:      -5.1      2.664      6.485
REMARK  Name = STC-mmff94.pdb
REMARK  13 active torsions:
REMARK  status: ('A' for Active; 'I' for Inactive)
REMARK    1  A    between atoms: _1  and  _2
REMARK    2  A    between atoms: _2  and  _3
REMARK    3  A    between atoms: _2  and  _5
REMARK    4  A    between atoms: _5  and  _6
REMARK    5  A    between atoms: _12  and  _13
REMARK    6  A    between atoms: _13  and  _14
REMARK    7  A    between atoms: _13  and  _16
REMARK    8  A    between atoms: _16  and  _17
REMARK    9  A    between atoms: _16  and  _18
REMARK   10  A    between atoms: _26  and  _27
REMARK   11  A    between atoms: _27  and  _28
REMARK   12  A    between atoms: _27  and  _30
REMARK   13  A    between atoms: _30  and  _31
REMARK                            x       y       z     vdW  Elec       q    Type
REMARK                         _______ _______ _______ _____ _____    ______ ____
ROOT
ATOM      1  CA  THR A   2       7.591  -3.127  22.334  0.00  0.00    +0.187 C 
ENDROOT
BRANCH   1   4
ATOM      2  C   SER A   1       9.014  -3.333  24.359  0.00  0.00    +0.233 C 
ATOM      3  O   SER A   1      10.020  -2.919  23.782  0.00  0.00    -0.274 OA
ATOM      4  N   THR A   2       7.778  -3.405  23.761  0.00  0.00    -0.301 N 
ATOM      5  H   THR A   2       6.978  -3.775  24.261  0.00  0.00    +0.150 HD
BRANCH   2   6
ATOM      6  CA  SER A   1       9.048  -3.826  25.820  0.00  0.00    +0.163 C 
BRANCH   6   7
ATOM      7  N   SER A   1       7.706  -3.641  26.439  0.00  0.00    -0.318 NA
ATOM      8  H1  SER A   1       7.094  -4.361  26.046  0.00  0.00    +0.119 HD
ATOM      9  H2  SER A   1       7.807  -3.961  27.412  0.00  0.00    +0.119 HD
ENDBRANCH   6   7
BRANCH   6  10
ATOM     10  CB  SER A   1       9.493  -5.295  25.889  0.00  0.00    +0.183 C 
BRANCH  10  11
ATOM     11  OG  SER A   1       9.681  -5.838  24.580  0.00  0.00    -0.393 OA
ATOM     12  H   SER A   1       9.854  -6.789  24.734  0.00  0.00    +0.209 HD
ENDBRANCH  10  11
ENDBRANCH   6  10
ENDBRANCH   2   6
ENDBRANCH   1   4
BRANCH   1  13
ATOM     13  C   THR A   2       7.068  -1.685  22.245  0.00  0.00    +0.236 C 
ATOM     14  O   THR A   2       6.276  -1.219  23.064  0.00  0.00    -0.274 OA
ATOM     15  N   CYS A   3       7.498  -0.969  21.155  0.00  0.00    -0.304 N 
ATOM     16  H   CYS A   3       8.189  -1.359  20.515  0.00  0.00    +0.149 HD
BRANCH  15  17
ATOM     17  CA  CYS A   3       7.053   0.401  20.893  0.00  0.00    +0.145 C 
BRANCH  17  18
ATOM     18  C   CYS A   3       7.094   0.581  19.382  0.00  0.00    +0.246 C 
ATOM     19  O   CYS A   3       7.798  -0.101  18.638  0.00  0.00    -0.299 OA
ENDBRANCH  17  18
BRANCH  17  20
ATOM     20  CB  CYS A   3       7.940   1.433  21.596  0.00  0.00    +0.095 C 
BRANCH  20  21
ATOM     21  SG  CYS A   3       9.659   0.865  21.819  0.00  0.00    -0.176 S 
ATOM     22  HG  CYS A   3       9.439  -0.435  21.570  0.00  0.00    +0.102 HD
ENDBRANCH  20  21
ENDBRANCH  17  20
ENDBRANCH  15  17
ENDBRANCH   1  13
BRANCH   1  23
ATOM     23  CB  THR A   2       6.562  -4.092  21.694  0.00  0.00    +0.141 C 
ATOM     24  CG2 THR A   2       6.794  -5.546  22.095  0.00  0.00    +0.040 C 
BRANCH  23  25
ATOM     25  OG1 THR A   2       5.228  -3.734  22.081  0.00  0.00    -0.390 OA
ATOM     26  HG1 THR A   2       5.075  -2.809  21.820  0.00  0.00    +0.210 HD
ENDBRANCH  23  25
ENDBRANCH   1  23
TORSDOF 12
ENDMDL
MODEL 10
REMARK VINA RESULT:      -5.1      2.342      3.383
REMARK  Name = STC-mmff94.pdb
REMARK  13 active torsions:
REMARK  status: ('A' for Active; 'I' for Inactive)
REMARK    1  A    between atoms: _1  and  _2
REMARK    2  A    between atoms: _2  and  _3
REMARK    3  A    between atoms: _2  and  _5
REMARK    4  A    between atoms: _5  and  _6
REMARK    5  A    between atoms: _12  and  _13
REMARK    6  A    between atoms: _13  and  _14
REMARK    7  A    between atoms: _13  and  _16
REMARK    8  A    between atoms: _16  and  _17
REMARK    9  A    between atoms: _16  and  _18
REMARK   10  A    between atoms: _26  and  _27
REMARK   11  A    between atoms: _27  and  _28
REMARK   12  A    between atoms: _27  and  _30
REMARK   13  A    between atoms: _30  and  _31
REMARK                            x       y       z     vdW  Elec       q    Type
REMARK                         _______ _______ _______ _____ _____    ______ ____
ROOT
ATOM      1  CA  THR A   2       8.561  -1.693  22.327  0.00  0.00    +0.187 C 
ENDROOT
BRANCH   1   4
ATOM      2  C   SER A   1       7.758   0.350  21.166  0.00  0.00    +0.233 C 
ATOM      3  O   SER A   1       7.974  -0.114  20.047  0.00  0.00    -0.274 OA
ATOM      4  N   THR A   2       7.947  -0.363  22.327  0.00  0.00    -0.301 N 
ATOM      5  H   THR A   2       7.781   0.062  23.232  0.00  0.00    +0.150 HD
BRANCH   2   6
ATOM      6  CA  SER A   1       7.261   1.795  21.376  0.00  0.00    +0.163 C 
BRANCH   6   7
ATOM      7  N   SER A   1       6.049   1.784  22.241  0.00  0.00    -0.318 NA
ATOM      8  H1  SER A   1       6.180   1.036  22.928  0.00  0.00    +0.119 HD
ATOM      9  H2  SER A   1       6.126   2.624  22.831  0.00  0.00    +0.119 HD
ENDBRANCH   6   7
BRANCH   6  10
ATOM     10  CB  SER A   1       8.368   2.670  21.984  0.00  0.00    +0.183 C 
BRANCH  10  11
ATOM     11  OG  SER A   1       9.659   2.258  21.526  0.00  0.00    -0.393 OA
ATOM     12  H   SER A   1      10.285   2.683  22.148  0.00  0.00    +0.209 HD
ENDBRANCH  10  11
ENDBRANCH   6  10
ENDBRANCH   2   6
ENDBRANCH   1   4
BRANCH   1  13
ATOM     13  C   THR A   2       7.743  -2.541  23.313  0.00  0.00    +0.236 C 
ATOM     14  O   THR A   2       7.277  -2.076  24.354  0.00  0.00    -0.274 OA
ATOM     15  N   CYS A   3       7.618  -3.869  22.986  0.00  0.00    -0.304 N 
ATOM     16  H   CYS A   3       7.973  -4.221  22.098  0.00  0.00    +0.149 HD
BRANCH  15  17
ATOM     17  CA  CYS A   3       6.915  -4.824  23.844  0.00  0.00    +0.145 C 
BRANCH  17  18
ATOM     18  C   CYS A   3       7.978  -5.479  24.714  0.00  0.00    +0.246 C 
ATOM     19  O   CYS A   3       9.177  -5.477  24.434  0.00  0.00    -0.299 OA
ENDBRANCH  17  18
BRANCH  17  20
ATOM     20  CB  CYS A   3       6.150  -5.869  23.027  0.00  0.00    +0.095 C 
BRANCH  20  21
ATOM     21  SG  CYS A   3       6.363  -5.666  21.227  0.00  0.00    -0.176 S 
ATOM     22  HG  CYS A   3       7.705  -5.691  21.214  0.00  0.00    +0.102 HD
ENDBRANCH  20  21
ENDBRANCH  17  20
ENDBRANCH  15  17
ENDBRANCH   1  13
BRANCH   1  23
ATOM     23  CB  THR A   2      10.039  -1.641  22.790  0.00  0.00    +0.141 C 
ATOM     24  CG2 THR A   2      10.356  -0.383  23.594  0.00  0.00    +0.040 C 
BRANCH  23  25
ATOM     25  OG1 THR A   2      10.350  -2.778  23.607  0.00  0.00    -0.390 OA
ATOM     26  HG1 THR A   2      10.025  -2.603  24.507  0.00  0.00    +0.210 HD
ENDBRANCH  23  25
ENDBRANCH   1  23
TORSDOF 12
ENDMDL
MODEL 11
REMARK VINA RESULT:      -5.1      2.590      4.162
REMARK  Name = STC-mmff94.pdb
REMARK  13 active torsions:
REMARK  status: ('A' for Active; 'I' for Inactive)
REMARK    1  A    between atoms: _1  and  _2
REMARK    2  A    between atoms: _2  and  _3
REMARK    3  A    between atoms: _2  and  _5
REMARK    4  A    between atoms: _5  and  _6
REMARK    5  A    between atoms: _12  and  _13
REMARK    6  A    between atoms: _13  and  _14
REMARK    7  A    between atoms: _13  and  _16
REMARK    8  A    between atoms: _16  and  _17
REMARK    9  A    between atoms: _16  and  _18
REMARK   10  A    between atoms: _26  and  _27
REMARK   11  A    between atoms: _27  and  _28
REMARK   12  A    between atoms: _27  and  _30
REMARK   13  A    between atoms: _30  and  _31
REMARK                            x       y       z     vdW  Elec       q    Type
REMARK                         _______ _______ _______ _____ _____    ______ ____
ROOT
ATOM      1  CA  THR A   2       7.271  -0.368  22.122  0.00  0.00    +0.187 C 
ENDROOT
BRANCH   1   4
ATOM      2  C   SER A   1       8.049   1.839  22.952  0.00  0.00    +0.233 C 
ATOM      3  O   SER A   1       7.245   2.464  22.261  0.00  0.00    -0.274 OA
ATOM      4  N   THR A   2       8.093   0.466  23.004  0.00  0.00    -0.301 N 
ATOM      5  H   THR A   2       8.788  -0.013  23.566  0.00  0.00    +0.150 HD
BRANCH   2   6
ATOM      6  CA  SER A   1       9.106   2.547  23.826  0.00  0.00    +0.163 C 
BRANCH   6   7
ATOM      7  N   SER A   1       9.345   1.748  25.060  0.00  0.00    -0.318 NA
ATOM      8  H1  SER A   1       8.483   1.785  25.611  0.00  0.00    +0.119 HD
ATOM      9  H2  SER A   1       9.354   0.765  24.752  0.00  0.00    +0.119 HD
ENDBRANCH   6   7
BRANCH   6  10
ATOM     10  CB  SER A   1      10.408   2.760  23.042  0.00  0.00    +0.183 C 
BRANCH  10  11
ATOM     11  OG  SER A   1      10.298   2.248  21.711  0.00  0.00    -0.393 OA
ATOM     12  H   SER A   1       9.566   2.762  21.312  0.00  0.00    +0.209 HD
ENDBRANCH  10  11
ENDBRANCH   6  10
ENDBRANCH   2   6
ENDBRANCH   1   4
BRANCH   1  13
ATOM     13  C   THR A   2       6.911  -1.621  22.935  0.00  0.00    +0.236 C 
ATOM     14  O   THR A   2       5.963  -1.647  23.720  0.00  0.00    -0.274 OA
ATOM     15  N   CYS A   3       7.753  -2.693  22.770  0.00  0.00    -0.304 N 
ATOM     16  H   CYS A   3       8.503  -2.664  22.081  0.00  0.00    +0.149 HD
BRANCH  15  17
ATOM     17  CA  CYS A   3       7.582  -3.945  23.509  0.00  0.00    +0.145 C 
BRANCH  17  18
ATOM     18  C   CYS A   3       8.773  -4.052  24.450  0.00  0.00    +0.246 C 
ATOM     19  O   CYS A   3       9.889  -3.606  24.182  0.00  0.00    -0.299 OA
ENDBRANCH  17  18
BRANCH  17  20
ATOM     20  CB  CYS A   3       7.508  -5.154  22.572  0.00  0.00    +0.095 C 
BRANCH  20  21
ATOM     21  SG  CYS A   3       5.799  -5.614  22.130  0.00  0.00    -0.176 S 
ATOM     22  HG  CYS A   3       6.073  -6.135  20.924  0.00  0.00    +0.102 HD
ENDBRANCH  20  21
ENDBRANCH  17  20
ENDBRANCH  15  17
ENDBRANCH   1  13
BRANCH   1  23
ATOM     23  CB  THR A   2       8.044  -0.783  20.845  0.00  0.00    +0.141 C 
ATOM     24  CG2 THR A   2       7.709   0.100  19.645  0.00  0.00    +0.040 C 
BRANCH  23  25
ATOM     25  OG1 THR A   2       9.459  -0.709  21.066  0.00  0.00    -0.390 OA
ATOM     26  HG1 THR A   2       9.653  -1.118  21.927  0.00  0.00    +0.210 HD
ENDBRANCH  23  25
ENDBRANCH   1  23
TORSDOF 12
ENDMDL
MODEL 12
REMARK VINA RESULT:      -5.1      3.199      6.635
REMARK  Name = STC-mmff94.pdb
REMARK  13 active torsions:
REMARK  status: ('A' for Active; 'I' for Inactive)
REMARK    1  A    between atoms: _1  and  _2
REMARK    2  A    between atoms: _2  and  _3
REMARK    3  A    between atoms: _2  and  _5
REMARK    4  A    between atoms: _5  and  _6
REMARK    5  A    between atoms: _12  and  _13
REMARK    6  A    between atoms: _13  and  _14
REMARK    7  A    between atoms: _13  and  _16
REMARK    8  A    between atoms: _16  and  _17
REMARK    9  A    between atoms: _16  and  _18
REMARK   10  A    between atoms: _26  and  _27
REMARK   11  A    between atoms: _27  and  _28
REMARK   12  A    between atoms: _27  and  _30
REMARK   13  A    between atoms: _30  and  _31
REMARK                            x       y       z     vdW  Elec       q    Type
REMARK                         _______ _______ _______ _____ _____    ______ ____
ROOT
ATOM      1  CA  THR A   2       7.083  -2.756  23.103  0.00  0.00    +0.187 C 
ENDROOT
BRANCH   1   4
ATOM      2  C   SER A   1       8.120  -4.820  24.014  0.00  0.00    +0.233 C 
ATOM      3  O   SER A   1       7.728  -5.516  23.078  0.00  0.00    -0.274 OA
ATOM      4  N   THR A   2       7.916  -3.462  24.080  0.00  0.00    -0.301 N 
ATOM      5  H   THR A   2       8.232  -2.926  24.881  0.00  0.00    +0.150 HD
BRANCH   2   6
ATOM      6  CA  SER A   1       8.877  -5.414  25.220  0.00  0.00    +0.163 C 
BRANCH   6   7
ATOM      7  N   SER A   1      10.340  -5.197  25.045  0.00  0.00    -0.318 NA
ATOM      8  H1  SER A   1      10.615  -5.694  24.193  0.00  0.00    +0.119 HD
ATOM      9  H2  SER A   1      10.438  -4.215  24.754  0.00  0.00    +0.119 HD
ENDBRANCH   6   7
BRANCH   6  10
ATOM     10  CB  SER A   1       8.378  -4.795  26.535  0.00  0.00    +0.183 C 
BRANCH  10  11
ATOM     11  OG  SER A   1       7.945  -5.807  27.448  0.00  0.00    -0.393 OA
ATOM     12  H   SER A   1       8.271  -5.504  28.320  0.00  0.00    +0.209 HD
ENDBRANCH  10  11
ENDBRANCH   6  10
ENDBRANCH   2   6
ENDBRANCH   1   4
BRANCH   1  13
ATOM     13  C   THR A   2       8.031  -1.836  22.319  0.00  0.00    +0.236 C 
ATOM     14  O   THR A   2       9.235  -1.766  22.566  0.00  0.00    -0.274 OA
ATOM     15  N   CYS A   3       7.435  -1.053  21.361  0.00  0.00    -0.304 N 
ATOM     16  H   CYS A   3       6.446  -1.162  21.143  0.00  0.00    +0.149 HD
BRANCH  15  17
ATOM     17  CA  CYS A   3       8.187  -0.086  20.561  0.00  0.00    +0.145 C 
BRANCH  17  18
ATOM     18  C   CYS A   3       8.049   1.254  21.271  0.00  0.00    +0.246 C 
ATOM     19  O   CYS A   3       7.176   1.491  22.106  0.00  0.00    -0.299 OA
ENDBRANCH  17  18
BRANCH  17  20
ATOM     20  CB  CYS A   3       7.665  -0.005  19.124  0.00  0.00    +0.095 C 
BRANCH  20  21
ATOM     21  SG  CYS A   3       5.847  -0.120  19.016  0.00  0.00    -0.176 S 
ATOM     22  HG  CYS A   3       5.617   1.166  18.708  0.00  0.00    +0.102 HD
ENDBRANCH  20  21
ENDBRANCH  17  20
ENDBRANCH  15  17
ENDBRANCH   1  13
BRANCH   1  23
ATOM     23  CB  THR A   2       5.989  -1.904  23.794  0.00  0.00    +0.141 C 
ATOM     24  CG2 THR A   2       5.480  -2.538  25.086  0.00  0.00    +0.040 C 
BRANCH  23  25
ATOM     25  OG1 THR A   2       6.494  -0.599  24.112  0.00  0.00    -0.390 OA
ATOM     26  HG1 THR A   2       6.786  -0.604  25.040  0.00  0.00    +0.210 HD
ENDBRANCH  23  25
ENDBRANCH   1  23
TORSDOF 12
ENDMDL
MODEL 13
REMARK VINA RESULT:      -5.1      3.355      5.927
REMARK  Name = STC-mmff94.pdb
REMARK  13 active torsions:
REMARK  status: ('A' for Active; 'I' for Inactive)
REMARK    1  A    between atoms: _1  and  _2
REMARK    2  A    between atoms: _2  and  _3
REMARK    3  A    between atoms: _2  and  _5
REMARK    4  A    between atoms: _5  and  _6
REMARK    5  A    between atoms: _12  and  _13
REMARK    6  A    between atoms: _13  and  _14
REMARK    7  A    between atoms: _13  and  _16
REMARK    8  A    between atoms: _16  and  _17
REMARK    9  A    between atoms: _16  and  _18
REMARK   10  A    between atoms: _26  and  _27
REMARK   11  A    between atoms: _27  and  _28
REMARK   12  A    between atoms: _27  and  _30
REMARK   13  A    between atoms: _30  and  _31
REMARK                            x       y       z     vdW  Elec       q    Type
REMARK                         _______ _______ _______ _____ _____    ______ ____
ROOT
ATOM      1  CA  THR A   2       8.347  -3.650  24.685  0.00  0.00    +0.187 C 
ENDROOT
BRANCH   1   4
ATOM      2  C   SER A   1       6.506  -4.885  23.563  0.00  0.00    +0.233 C 
ATOM      3  O   SER A   1       5.645  -4.426  24.313  0.00  0.00    -0.274 OA
ATOM      4  N   THR A   2       7.830  -4.517  23.622  0.00  0.00    -0.301 N 
ATOM      5  H   THR A   2       8.516  -4.936  23.003  0.00  0.00    +0.150 HD
BRANCH   2   6
ATOM      6  CA  SER A   1       6.181  -5.937  22.483  0.00  0.00    +0.163 C 
BRANCH   6   7
ATOM      7  N   SER A   1       4.874  -6.579  22.792  0.00  0.00    -0.318 NA
ATOM      8  H1  SER A   1       5.064  -7.567  22.984  0.00  0.00    +0.119 HD
ATOM      9  H2  SER A   1       4.613  -6.232  23.726  0.00  0.00    +0.119 HD
ENDBRANCH   6   7
BRANCH   6  10
ATOM     10  CB  SER A   1       6.170  -5.298  21.086  0.00  0.00    +0.183 C 
BRANCH  10  11
ATOM     11  OG  SER A   1       5.810  -3.916  21.155  0.00  0.00    -0.393 OA
ATOM     12  H   SER A   1       5.317  -3.834  21.997  0.00  0.00    +0.209 HD
ENDBRANCH  10  11
ENDBRANCH   6  10
ENDBRANCH   2   6
ENDBRANCH   1   4
BRANCH   1  13
ATOM     13  C   THR A   2       9.235  -2.607  23.990  0.00  0.00    +0.236 C 
ATOM     14  O   THR A   2      10.375  -2.865  23.603  0.00  0.00    -0.274 OA
ATOM     15  N   CYS A   3       8.695  -1.349  23.885  0.00  0.00    -0.304 N 
ATOM     16  H   CYS A   3       7.733  -1.171  24.172  0.00  0.00    +0.149 HD
BRANCH  15  17
ATOM     17  CA  CYS A   3       9.429  -0.228  23.298  0.00  0.00    +0.145 C 
BRANCH  17  18
ATOM     18  C   CYS A   3       9.936   0.609  24.464  0.00  0.00    +0.246 C 
ATOM     19  O   CYS A   3      11.077   0.518  24.917  0.00  0.00    -0.299 OA
ENDBRANCH  17  18
BRANCH  17  20
ATOM     20  CB  CYS A   3       8.547   0.605  22.363  0.00  0.00    +0.095 C 
BRANCH  20  21
ATOM     21  SG  CYS A   3       8.351  -0.141  20.710  0.00  0.00    -0.176 S 
ATOM     22  HG  CYS A   3       7.291  -0.912  21.001  0.00  0.00    +0.102 HD
ENDBRANCH  20  21
ENDBRANCH  17  20
ENDBRANCH  15  17
ENDBRANCH   1  13
BRANCH   1  23
ATOM     23  CB  THR A   2       9.189  -4.447  25.713  0.00  0.00    +0.141 C 
ATOM     24  CG2 THR A   2       8.324  -5.187  26.730  0.00  0.00    +0.040 C 
BRANCH  23  25
ATOM     25  OG1 THR A   2      10.014  -5.413  25.047  0.00  0.00    -0.390 OA
ATOM     26  HG1 THR A   2       9.723  -6.300  25.319  0.00  0.00    +0.210 HD
ENDBRANCH  23  25
ENDBRANCH   1  23
TORSDOF 12
ENDMDL
MODEL 14
REMARK VINA RESULT:      -5.1      2.572      4.061
REMARK  Name = STC-mmff94.pdb
REMARK  13 active torsions:
REMARK  status: ('A' for Active; 'I' for Inactive)
REMARK    1  A    between atoms: _1  and  _2
REMARK    2  A    between atoms: _2  and  _3
REMARK    3  A    between atoms: _2  and  _5
REMARK    4  A    between atoms: _5  and  _6
REMARK    5  A    between atoms: _12  and  _13
REMARK    6  A    between atoms: _13  and  _14
REMARK    7  A    between atoms: _13  and  _16
REMARK    8  A    between atoms: _16  and  _17
REMARK    9  A    between atoms: _16  and  _18
REMARK   10  A    between atoms: _26  and  _27
REMARK   11  A    between atoms: _27  and  _28
REMARK   12  A    between atoms: _27  and  _30
REMARK   13  A    between atoms: _30  and  _31
REMARK                            x       y       z     vdW  Elec       q    Type
REMARK                         _______ _______ _______ _____ _____    ______ ____
ROOT
ATOM      1  CA  THR A   2       8.781  -3.035  24.171  0.00  0.00    +0.187 C 
ENDROOT
BRANCH   1   4
ATOM      2  C   SER A   1       8.642  -1.510  22.216  0.00  0.00    +0.233 C 
ATOM      3  O   SER A   1       9.778  -1.783  21.830  0.00  0.00    -0.274 OA
ATOM      4  N   THR A   2       8.047  -2.113  23.299  0.00  0.00    -0.301 N 
ATOM      5  H   THR A   2       7.119  -1.843  23.602  0.00  0.00    +0.150 HD
BRANCH   2   6
ATOM      6  CA  SER A   1       7.772  -0.442  21.521  0.00  0.00    +0.163 C 
BRANCH   6   7
ATOM      7  N   SER A   1       8.632   0.418  20.661  0.00  0.00    -0.318 NA
ATOM      8  H1  SER A   1       8.084   0.650  19.828  0.00  0.00    +0.119 HD
ATOM      9  H2  SER A   1       8.676   1.328  21.142  0.00  0.00    +0.119 HD
ENDBRANCH   6   7
BRANCH   6  10
ATOM     10  CB  SER A   1       6.651  -1.100  20.703  0.00  0.00    +0.183 C 
BRANCH  10  11
ATOM     11  OG  SER A   1       5.879  -1.991  21.512  0.00  0.00    -0.393 OA
ATOM     12  H   SER A   1       5.349  -2.506  20.869  0.00  0.00    +0.209 HD
ENDBRANCH  10  11
ENDBRANCH   6  10
ENDBRANCH   2   6
ENDBRANCH   1   4
BRANCH   1  13
ATOM     13  C   THR A   2       8.237  -4.438  23.863  0.00  0.00    +0.236 C 
ATOM     14  O   THR A   2       8.871  -5.462  24.121  0.00  0.00    -0.274 OA
ATOM     15  N   CYS A   3       7.022  -4.472  23.225  0.00  0.00    -0.304 N 
ATOM     16  H   CYS A   3       6.496  -3.615  23.063  0.00  0.00    +0.149 HD
BRANCH  15  17
ATOM     17  CA  CYS A   3       6.388  -5.726  22.815  0.00  0.00    +0.145 C 
BRANCH  17  18
ATOM     18  C   CYS A   3       6.340  -5.701  21.294  0.00  0.00    +0.246 C 
ATOM     19  O   CYS A   3       5.884  -4.759  20.646  0.00  0.00    -0.299 OA
ENDBRANCH  17  18
BRANCH  17  20
ATOM     20  CB  CYS A   3       4.984  -5.876  23.409  0.00  0.00    +0.095 C 
BRANCH  20  21
ATOM     21  SG  CYS A   3       4.237  -4.283  23.890  0.00  0.00    -0.176 S 
ATOM     22  HG  CYS A   3       5.371  -3.565  23.907  0.00  0.00    +0.102 HD
ENDBRANCH  20  21
ENDBRANCH  17  20
ENDBRANCH  15  17
ENDBRANCH   1  13
BRANCH   1  23
ATOM     23  CB  THR A   2       8.555  -2.708  25.668  0.00  0.00    +0.141 C 
ATOM     24  CG2 THR A   2       7.883  -1.353  25.877  0.00  0.00    +0.040 C 
BRANCH  23  25
ATOM     25  OG1 THR A   2       7.731  -3.709  26.283  0.00  0.00    -0.390 OA
ATOM     26  HG1 THR A   2       8.286  -4.486  26.469  0.00  0.00    +0.210 HD
ENDBRANCH  23  25
ENDBRANCH   1  23
TORSDOF 12
ENDMDL
MODEL 15
REMARK VINA RESULT:      -5.0      2.329      2.632
REMARK  Name = STC-mmff94.pdb
REMARK  13 active torsions:
REMARK  status: ('A' for Active; 'I' for Inactive)
REMARK    1  A    between atoms: _1  and  _2
REMARK    2  A    between atoms: _2  and  _3
REMARK    3  A    between atoms: _2  and  _5
REMARK    4  A    between atoms: _5  and  _6
REMARK    5  A    between atoms: _12  and  _13
REMARK    6  A    between atoms: _13  and  _14
REMARK    7  A    between atoms: _13  and  _16
REMARK    8  A    between atoms: _16  and  _17
REMARK    9  A    between atoms: _16  and  _18
REMARK   10  A    between atoms: _26  and  _27
REMARK   11  A    between atoms: _27  and  _28
REMARK   12  A    between atoms: _27  and  _30
REMARK   13  A    between atoms: _30  and  _31
REMARK                            x       y       z     vdW  Elec       q    Type
REMARK                         _______ _______ _______ _____ _____    ______ ____
ROOT
ATOM      1  CA  THR A   2       7.385  -0.718  22.382  0.00  0.00    +0.187 C 
ENDROOT
BRANCH   1   4
ATOM      2  C   SER A   1       7.087   0.086  20.051  0.00  0.00    +0.233 C 
ATOM      3  O   SER A   1       8.147   0.711  20.054  0.00  0.00    -0.274 OA
ATOM      4  N   THR A   2       6.666  -0.690  21.105  0.00  0.00    -0.301 N 
ATOM      5  H   THR A   2       5.774  -1.171  21.075  0.00  0.00    +0.150 HD
BRANCH   2   6
ATOM      6  CA  SER A   1       6.113   0.123  18.855  0.00  0.00    +0.163 C 
BRANCH   6   7
ATOM      7  N   SER A   1       5.519  -1.228  18.655  0.00  0.00    -0.318 NA
ATOM      8  H1  SER A   1       6.253  -1.910  18.866  0.00  0.00    +0.119 HD
ATOM      9  H2  SER A   1       4.875  -1.363  19.447  0.00  0.00    +0.119 HD
ENDBRANCH   6   7
BRANCH   6  10
ATOM     10  CB  SER A   1       5.023   1.182  19.072  0.00  0.00    +0.183 C 
BRANCH  10  11
ATOM     11  OG  SER A   1       5.247   1.911  20.282  0.00  0.00    -0.393 OA
ATOM     12  H   SER A   1       5.493   2.810  19.983  0.00  0.00    +0.209 HD
ENDBRANCH  10  11
ENDBRANCH   6  10
ENDBRANCH   2   6
ENDBRANCH   1   4
BRANCH   1  13
ATOM     13  C   THR A   2       7.845  -2.170  22.581  0.00  0.00    +0.236 C 
ATOM     14  O   THR A   2       9.034  -2.485  22.625  0.00  0.00    -0.274 OA
ATOM     15  N   CYS A   3       6.839  -3.103  22.648  0.00  0.00    -0.304 N 
ATOM     16  H   CYS A   3       5.862  -2.813  22.655  0.00  0.00    +0.149 HD
BRANCH  15  17
ATOM     17  CA  CYS A   3       7.107  -4.535  22.784  0.00  0.00    +0.145 C 
BRANCH  17  18
ATOM     18  C   CYS A   3       6.032  -5.249  21.976  0.00  0.00    +0.246 C 
ATOM     19  O   CYS A   3       6.014  -5.270  20.745  0.00  0.00    -0.299 OA
ENDBRANCH  17  18
BRANCH  17  20
ATOM     20  CB  CYS A   3       7.084  -4.983  24.248  0.00  0.00    +0.095 C 
BRANCH  20  21
ATOM     21  SG  CYS A   3       8.751  -5.150  24.971  0.00  0.00    -0.176 S 
ATOM     22  HG  CYS A   3       8.588  -6.382  25.480  0.00  0.00    +0.102 HD
ENDBRANCH  20  21
ENDBRANCH  17  20
ENDBRANCH  15  17
ENDBRANCH   1  13
BRANCH   1  23
ATOM     23  CB  THR A   2       6.474  -0.296  23.561  0.00  0.00    +0.141 C 
ATOM     24  CG2 THR A   2       7.231  -0.204  24.883  0.00  0.00    +0.040 C 
BRANCH  23  25
ATOM     25  OG1 THR A   2       5.878   0.984  23.303  0.00  0.00    -0.390 OA
ATOM     26  HG1 THR A   2       6.055   1.219  22.376  0.00  0.00    +0.210 HD
ENDBRANCH  23  25
ENDBRANCH   1  23
TORSDOF 12
ENDMDL
MODEL 16
REMARK VINA RESULT:      -5.0      3.214      6.313
REMARK  Name = STC-mmff94.pdb
REMARK  13 active torsions:
REMARK  status: ('A' for Active; 'I' for Inactive)
REMARK    1  A    between atoms: _1  and  _2
REMARK    2  A    between atoms: _2  and  _3
REMARK    3  A    between atoms: _2  and  _5
REMARK    4  A    between atoms: _5  and  _6
REMARK    5  A    between atoms: _12  and  _13
REMARK    6  A    between atoms: _13  and  _14
REMARK    7  A    between atoms: _13  and  _16
REMARK    8  A    between atoms: _16  and  _17
REMARK    9  A    between atoms: _16  and  _18
REMARK   10  A    between atoms: _26  and  _27
REMARK   11  A    between atoms: _27  and  _28
REMARK   12  A    between atoms: _27  and  _30
REMARK   13  A    between atoms: _30  and  _31
REMARK                            x       y       z     vdW  Elec       q    Type
REMARK                         _______ _______ _______ _____ _____    ______ ____
ROOT
ATOM      1  CA  THR A   2       8.261  -2.529  22.520  0.00  0.00    +0.187 C 
ENDROOT
BRANCH   1   4
ATOM      2  C   SER A   1       8.117  -4.270  24.285  0.00  0.00    +0.233 C 
ATOM      3  O   SER A   1       8.340  -5.189  23.498  0.00  0.00    -0.274 OA
ATOM      4  N   THR A   2       8.125  -2.944  23.919  0.00  0.00    -0.301 N 
ATOM      5  H   THR A   2       7.911  -2.216  24.591  0.00  0.00    +0.150 HD
BRANCH   2   6
ATOM      6  CA  SER A   1       7.790  -4.521  25.772  0.00  0.00    +0.163 C 
BRANCH   6   7
ATOM      7  N   SER A   1       6.748  -5.580  25.880  0.00  0.00    -0.318 NA
ATOM      8  H1  SER A   1       6.838  -6.172  25.049  0.00  0.00    +0.119 HD
ATOM      9  H2  SER A   1       7.077  -6.212  26.623  0.00  0.00    +0.119 HD
ENDBRANCH   6   7
BRANCH   6  10
ATOM     10  CB  SER A   1       9.056  -4.906  26.551  0.00  0.00    +0.183 C 
BRANCH  10  11
ATOM     11  OG  SER A   1      10.008  -5.550  25.701  0.00  0.00    -0.393 OA
ATOM     12  H   SER A   1      10.403  -4.820  25.181  0.00  0.00    +0.209 HD
ENDBRANCH  10  11
ENDBRANCH   6  10
ENDBRANCH   2   6
ENDBRANCH   1   4
BRANCH   1  13
ATOM     13  C   THR A   2       9.432  -1.535  22.482  0.00  0.00    +0.236 C 
ATOM     14  O   THR A   2      10.594  -1.891  22.285  0.00  0.00    -0.274 OA
ATOM     15  N   CYS A   3       9.103  -0.227  22.743  0.00  0.00    -0.304 N 
ATOM     16  H   CYS A   3       8.130   0.051  22.857  0.00  0.00    +0.149 HD
BRANCH  15  17
ATOM     17  CA  CYS A   3      10.107   0.837  22.796  0.00  0.00    +0.145 C 
BRANCH  17  18
ATOM     18  C   CYS A   3      10.361   1.110  24.272  0.00  0.00    +0.246 C 
ATOM     19  O   CYS A   3      11.051   0.381  24.985  0.00  0.00    -0.299 OA
ENDBRANCH  17  18
BRANCH  17  20
ATOM     20  CB  CYS A   3       9.635   2.102  22.074  0.00  0.00    +0.095 C 
BRANCH  20  21
ATOM     21  SG  CYS A   3       7.819   2.219  21.948  0.00  0.00    -0.176 S 
ATOM     22  HG  CYS A   3       7.615   1.022  21.377  0.00  0.00    +0.102 HD
ENDBRANCH  20  21
ENDBRANCH  17  20
ENDBRANCH  15  17
ENDBRANCH   1  13
BRANCH   1  23
ATOM     23  CB  THR A   2       6.976  -1.836  22.002  0.00  0.00    +0.141 C 
ATOM     24  CG2 THR A   2       5.935  -2.833  21.500  0.00  0.00    +0.040 C 
BRANCH  23  25
ATOM     25  OG1 THR A   2       6.372  -1.053  23.042  0.00  0.00    -0.390 OA
ATOM     26  HG1 THR A   2       5.803  -1.639  23.571  0.00  0.00    +0.210 HD
ENDBRANCH  23  25
ENDBRANCH   1  23
TORSDOF 12
ENDMDL
MODEL 17
REMARK VINA RESULT:      -5.0      2.371      4.065
REMARK  Name = STC-mmff94.pdb
REMARK  13 active torsions:
REMARK  status: ('A' for Active; 'I' for Inactive)
REMARK    1  A    between atoms: _1  and  _2
REMARK    2  A    between atoms: _2  and  _3
REMARK    3  A    between atoms: _2  and  _5
REMARK    4  A    between atoms: _5  and  _6
REMARK    5  A    between atoms: _12  and  _13
REMARK    6  A    between atoms: _13  and  _14
REMARK    7  A    between atoms: _13  and  _16
REMARK    8  A    between atoms: _16  and  _17
REMARK    9  A    between atoms: _16  and  _18
REMARK   10  A    between atoms: _26  and  _27
REMARK   11  A    between atoms: _27  and  _28
REMARK   12  A    between atoms: _27  and  _30
REMARK   13  A    between atoms: _30  and  _31
REMARK                            x       y       z     vdW  Elec       q    Type
REMARK                         _______ _______ _______ _____ _____    ______ ____
ROOT
ATOM      1  CA  THR A   2       7.769  -1.009  22.527  0.00  0.00    +0.187 C 
ENDROOT
BRANCH   1   4
ATOM      2  C   SER A   1       8.498   1.097  23.623  0.00  0.00    +0.233 C 
ATOM      3  O   SER A   1       7.390   1.620  23.518  0.00  0.00    -0.274 OA
ATOM      4  N   THR A   2       8.762  -0.196  23.234  0.00  0.00    -0.301 N 
ATOM      5  H   THR A   2       9.695  -0.584  23.313  0.00  0.00    +0.150 HD
BRANCH   2   6
ATOM      6  CA  SER A   1       9.715   1.854  24.195  0.00  0.00    +0.163 C 
BRANCH   6   7
ATOM      7  N   SER A   1      10.604   0.897  24.910  0.00  0.00    -0.318 NA
ATOM      8  H1  SER A   1      11.420   1.428  25.226  0.00  0.00    +0.119 HD
ATOM      9  H2  SER A   1      10.129   0.695  25.801  0.00  0.00    +0.119 HD
ENDBRANCH   6   7
BRANCH   6  10
ATOM     10  CB  SER A   1      10.473   2.590  23.080  0.00  0.00    +0.183 C 
BRANCH  10  11
ATOM     11  OG  SER A   1      10.007   2.188  21.789  0.00  0.00    -0.393 OA
ATOM     12  H   SER A   1      10.768   2.349  21.195  0.00  0.00    +0.209 HD
ENDBRANCH  10  11
ENDBRANCH   6  10
ENDBRANCH   2   6
ENDBRANCH   1   4
BRANCH   1  13
ATOM     13  C   THR A   2       8.018  -2.461  22.963  0.00  0.00    +0.236 C 
ATOM     14  O   THR A   2       9.022  -2.798  23.592  0.00  0.00    -0.274 OA
ATOM     15  N   CYS A   3       7.075  -3.371  22.550  0.00  0.00    -0.304 N 
ATOM     16  H   CYS A   3       6.231  -3.062  22.070  0.00  0.00    +0.149 HD
BRANCH  15  17
ATOM     17  CA  CYS A   3       7.190  -4.801  22.836  0.00  0.00    +0.145 C 
BRANCH  17  18
ATOM     18  C   CYS A   3       6.813  -5.525  21.551  0.00  0.00    +0.246 C 
ATOM     19  O   CYS A   3       5.963  -5.108  20.764  0.00  0.00    -0.299 OA
ENDBRANCH  17  18
BRANCH  17  20
ATOM     20  CB  CYS A   3       6.282  -5.226  23.994  0.00  0.00    +0.095 C 
BRANCH  20  21
ATOM     21  SG  CYS A   3       7.114  -5.161  25.617  0.00  0.00    -0.176 S 
ATOM     22  HG  CYS A   3       7.784  -4.015  25.414  0.00  0.00    +0.102 HD
ENDBRANCH  20  21
ENDBRANCH  17  20
ENDBRANCH  15  17
ENDBRANCH   1  13
BRANCH   1  23
ATOM     23  CB  THR A   2       7.926  -0.895  20.990  0.00  0.00    +0.141 C 
ATOM     24  CG2 THR A   2       6.991   0.147  20.382  0.00  0.00    +0.040 C 
BRANCH  23  25
ATOM     25  OG1 THR A   2       9.272  -0.534  20.648  0.00  0.00    -0.390 OA
ATOM     26  HG1 THR A   2       9.869  -0.937  21.301  0.00  0.00    +0.210 HD
ENDBRANCH  23  25
ENDBRANCH   1  23
TORSDOF 12
ENDMDL
MODEL 18
REMARK VINA RESULT:      -5.0      3.196      6.919
REMARK  Name = STC-mmff94.pdb
REMARK  13 active torsions:
REMARK  status: ('A' for Active; 'I' for Inactive)
REMARK    1  A    between atoms: _1  and  _2
REMARK    2  A    between atoms: _2  and  _3
REMARK    3  A    between atoms: _2  and  _5
REMARK    4  A    between atoms: _5  and  _6
REMARK    5  A    between atoms: _12  and  _13
REMARK    6  A    between atoms: _13  and  _14
REMARK    7  A    between atoms: _13  and  _16
REMARK    8  A    between atoms: _16  and  _17
REMARK    9  A    between atoms: _16  and  _18
REMARK   10  A    between atoms: _26  and  _27
REMARK   11  A    between atoms: _27  and  _28
REMARK   12  A    between atoms: _27  and  _30
REMARK   13  A    between atoms: _30  and  _31
REMARK                            x       y       z     vdW  Elec       q    Type
REMARK                         _______ _______ _______ _____ _____    ______ ____
ROOT
ATOM      1  CA  THR A   2       7.381  -4.098  22.990  0.00  0.00    +0.187 C 
ENDROOT
BRANCH   1   4
ATOM      2  C   SER A   1       7.585  -4.928  25.322  0.00  0.00    +0.233 C 
ATOM      3  O   SER A   1       8.815  -4.957  25.280  0.00  0.00    -0.274 OA
ATOM      4  N   THR A   2       6.806  -4.463  24.288  0.00  0.00    -0.301 N 
ATOM      5  H   THR A   2       5.795  -4.479  24.350  0.00  0.00    +0.150 HD
BRANCH   2   6
ATOM      6  CA  SER A   1       6.791  -5.427  26.547  0.00  0.00    +0.163 C 
BRANCH   6   7
ATOM      7  N   SER A   1       7.736  -5.960  27.568  0.00  0.00    -0.318 NA
ATOM      8  H1  SER A   1       7.724  -5.306  28.355  0.00  0.00    +0.119 HD
ATOM      9  H2  SER A   1       7.266  -6.782  27.972  0.00  0.00    +0.119 HD
ENDBRANCH   6   7
BRANCH   6  10
ATOM     10  CB  SER A   1       5.922  -4.303  27.128  0.00  0.00    +0.183 C 
BRANCH  10  11
ATOM     11  OG  SER A   1       6.347  -3.024  26.651  0.00  0.00    -0.393 OA
ATOM     12  H   SER A   1       7.242  -3.185  26.287  0.00  0.00    +0.209 HD
ENDBRANCH  10  11
ENDBRANCH   6  10
ENDBRANCH   2   6
ENDBRANCH   1   4
BRANCH   1  13
ATOM     13  C   THR A   2       7.363  -2.562  22.933  0.00  0.00    +0.236 C 
ATOM     14  O   THR A   2       6.660  -1.883  23.681  0.00  0.00    -0.274 OA
ATOM     15  N   CYS A   3       8.141  -2.000  21.951  0.00  0.00    -0.304 N 
ATOM     16  H   CYS A   3       8.749  -2.580  21.374  0.00  0.00    +0.149 HD
BRANCH  15  17
ATOM     17  CA  CYS A   3       8.196  -0.555  21.727  0.00  0.00    +0.145 C 
BRANCH  17  18
ATOM     18  C   CYS A   3       7.380  -0.286  20.471  0.00  0.00    +0.246 C 
ATOM     19  O   CYS A   3       7.871   0.124  19.419  0.00  0.00    -0.299 OA
ENDBRANCH  17  18
BRANCH  17  20
ATOM     20  CB  CYS A   3       9.635  -0.058  21.567  0.00  0.00    +0.095 C 
BRANCH  20  21
ATOM     21  SG  CYS A   3       9.867   1.659  22.138  0.00  0.00    -0.176 S 
ATOM     22  HG  CYS A   3      11.161   1.774  21.799  0.00  0.00    +0.102 HD
ENDBRANCH  20  21
ENDBRANCH  17  20
ENDBRANCH  15  17
ENDBRANCH   1  13
BRANCH   1  23
ATOM     23  CB  THR A   2       6.549  -4.669  21.815  0.00  0.00    +0.141 C 
ATOM     24  CG2 THR A   2       5.742  -5.902  22.214  0.00  0.00    +0.040 C 
BRANCH  23  25
ATOM     25  OG1 THR A   2       5.632  -3.682  21.321  0.00  0.00    -0.390 OA
ATOM     26  HG1 THR A   2       5.297  -3.173  22.079  0.00  0.00    +0.210 HD
ENDBRANCH  23  25
ENDBRANCH   1  23
TORSDOF 12
ENDMDL
