REMARK  Name = STC-mmff94.pdb
REMARK  13 active torsions:
REMARK  status: ('A' for Active; 'I' for Inactive)
REMARK    1  A    between atoms: _1  and  _2
REMARK    2  A    between atoms: _2  and  _3
REMARK    3  A    between atoms: _2  and  _5
REMARK    4  A    between atoms: _5  and  _6
REMARK    5  A    between atoms: _12  and  _13
REMARK    6  A    between atoms: _13  and  _14
REMARK    7  A    between atoms: _13  and  _16
REMARK    8  A    between atoms: _16  and  _17
REMARK    9  A    between atoms: _16  and  _18
REMARK   10  A    between atoms: _26  and  _27
REMARK   11  A    between atoms: _27  and  _28
REMARK   12  A    between atoms: _27  and  _30
REMARK   13  A    between atoms: _30  and  _31
REMARK                            x       y       z     vdW  Elec       q    Type
REMARK                         _______ _______ _______ _____ _____    ______ ____
ROOT
ATOM      1  CA  THR A   2       3.794   0.790  -1.082  0.00  0.00    +0.187 C 
ENDROOT
BRANCH   1   4
ATOM      2  C   SER A   1       1.615  -0.111  -0.303  0.00  0.00    +0.233 C 
ATOM      3  O   SER A   1       2.139  -1.014   0.348  0.00  0.00    -0.274 OA
ATOM      4  N   THR A   2       2.334   0.851  -0.973  0.00  0.00    -0.301 N 
ATOM      5  H   THR A   2       1.866   1.565  -1.520  0.00  0.00    +0.150 HD
BRANCH   2   6
ATOM      6  CA  SER A   1       0.084   0.022  -0.441  0.00  0.00    +0.163 C 
BRANCH   6   7
ATOM      7  N   SER A   1      -0.561  -1.274  -0.091  0.00  0.00    -0.318 NA
ATOM      8  H1  SER A   1      -0.289  -1.947  -0.813  0.00  0.00    +0.119 HD
ATOM      9  H2  SER A   1      -0.043  -1.625   0.727  0.00  0.00    +0.119 HD
ENDBRANCH   6   7
BRANCH   6  10
ATOM     10  CB  SER A   1      -0.446   1.162   0.441  0.00  0.00    +0.183 C 
BRANCH  10  11
ATOM     11  OG  SER A   1      -0.765   0.692   1.753  0.00  0.00    -0.393 OA
ATOM     12  H   SER A   1      -1.250  -0.145   1.601  0.00  0.00    +0.209 HD
ENDBRANCH  10  11
ENDBRANCH   6  10
ENDBRANCH   2   6
ENDBRANCH   1   4
BRANCH   1  13
ATOM     13  C   THR A   2       4.286   2.245  -1.043  0.00  0.00    +0.236 C 
ATOM     14  O   THR A   2       3.635   3.174  -1.521  0.00  0.00    -0.274 OA
ATOM     15  N   CYS A   3       5.530   2.432  -0.492  0.00  0.00    -0.304 N 
ATOM     16  H   CYS A   3       6.030   1.655  -0.062  0.00  0.00    +0.149 HD
BRANCH  15  17
ATOM     17  CA  CYS A   3       6.167   3.748  -0.425  0.00  0.00    +0.145 C 
BRANCH  17  18
ATOM     18  C   CYS A   3       7.660   3.492  -0.276  0.00  0.00    +0.246 C 
ATOM     19  O   CYS A   3       8.128   2.419   0.105  0.00  0.00    -0.299 OA
ENDBRANCH  17  18
BRANCH  17  20
ATOM     20  CB  CYS A   3       5.631   4.582   0.742  0.00  0.00    +0.095 C 
BRANCH  20  21
ATOM     21  SG  CYS A   3       6.290   6.283   0.768  0.00  0.00    -0.176 S 
ATOM     22  HG  CYS A   3       7.413   6.016   1.453  0.00  0.00    +0.102 HD
ENDBRANCH  20  21
ENDBRANCH  17  20
ENDBRANCH  15  17
ENDBRANCH   1  13
BRANCH   1  23
ATOM     23  CB  THR A   2       4.241   0.127  -2.409  0.00  0.00    +0.141 C 
ATOM     24  CG2 THR A   2       5.724  -0.234  -2.413  0.00  0.00    +0.040 C 
BRANCH  23  25
ATOM     25  OG1 THR A   2       3.493  -1.074  -2.648  0.00  0.00    -0.390 OA
ATOM     26  HG1 THR A   2       3.829  -1.483  -3.464  0.00  0.00    +0.210 HD
ENDBRANCH  23  25
ENDBRANCH   1  23
TORSDOF 12
