MODEL 1
REMARK VINA RESULT:      -6.4      0.000      0.000
REMARK  Name = TKLQS-mmff94.pdb
REMARK  27 active torsions:
REMARK  status: ('A' for Active; 'I' for Inactive)
REMARK    1  A    between atoms: _1  and  _2
REMARK    2  A    between atoms: _2  and  _3
REMARK    3  A    between atoms: _2  and  _5
REMARK    4  A    between atoms: _5  and  _6
REMARK    5  A    between atoms: _5  and  _7
REMARK    6  A    between atoms: _15  and  _16
REMARK    7  A    between atoms: _16  and  _17
REMARK    8  A    between atoms: _16  and  _19
REMARK    9  A    between atoms: _19  and  _20
REMARK   10  A    between atoms: _20  and  _21
REMARK   11  A    between atoms: _21  and  _22
REMARK   12  A    between atoms: _22  and  _23
REMARK   13  A    between atoms: _37  and  _38
REMARK   14  A    between atoms: _38  and  _39
REMARK   15  A    between atoms: _38  and  _41
REMARK   16  A    between atoms: _41  and  _42
REMARK   17  A    between atoms: _42  and  _43
REMARK   18  A    between atoms: _42  and  _44
REMARK   19  A    between atoms: _56  and  _57
REMARK   20  A    between atoms: _57  and  _58
REMARK   21  A    between atoms: _57  and  _60
REMARK   22  A    between atoms: _60  and  _61
REMARK   23  A    between atoms: _61  and  _62
REMARK   24  A    between atoms: _73  and  _74
REMARK   25  A    between atoms: _74  and  _75
REMARK   26  A    between atoms: _74  and  _77
REMARK   27  A    between atoms: _77  and  _78
REMARK                            x       y       z     vdW  Elec       q    Type
REMARK                         _______ _______ _______ _____ _____    ______ ____
ROOT
ATOM      1  CA  LEU A   3       7.664  -3.396  22.474  0.00  0.00    +0.159 C 
ENDROOT
BRANCH   1   2
ATOM      2  C   LEU A   3       8.495  -2.174  22.020  0.00  0.00    +0.234 C 
ATOM      3  O   LEU A   3       9.709  -2.079  22.220  0.00  0.00    -0.274 OA
ATOM      4  N   GLN A   4       7.791  -1.206  21.349  0.00  0.00    -0.302 N 
ATOM      5  H   GLN A   4       6.794  -1.319  21.167  0.00  0.00    +0.150 HD
BRANCH   4   6
ATOM      6  CA  GLN A   4       8.411   0.018  20.844  0.00  0.00    +0.159 C 
BRANCH   6   7
ATOM      7  C   GLN A   4       8.064   1.118  21.868  0.00  0.00    +0.234 C 
ATOM      8  O   GLN A   4       6.902   1.457  22.091  0.00  0.00    -0.274 OA
ATOM      9  N   SER A   5       9.129   1.707  22.494  0.00  0.00    -0.302 N 
ATOM     10  H   SER A   5      10.086   1.446  22.273  0.00  0.00    +0.150 HD
BRANCH   9  11
ATOM     11  CA  SER A   5       8.967   2.847  23.402  0.00  0.00    +0.161 C 
BRANCH  11  12
ATOM     12  CB  SER A   5      10.272   3.628  23.384  0.00  0.00    +0.247 C 
ATOM     13  OG  SER A   5      11.352   3.122  23.698  0.00  0.00    -0.299 OA
ENDBRANCH  11  12
BRANCH  11  14
ATOM     14  C   SER A   5       8.620   2.434  24.835  0.00  0.00    +0.185 C 
BRANCH  14  15
ATOM     15  O   SER A   5       9.347   1.269  25.220  0.00  0.00    -0.393 OA
ATOM     16  H   SER A   5       9.388   0.688  24.438  0.00  0.00    +0.209 HD
ENDBRANCH  14  15
ENDBRANCH  11  14
ENDBRANCH   9  11
ENDBRANCH   6   7
BRANCH   6  17
ATOM     17  CB  GLN A   4       7.881   0.353  19.439  0.00  0.00    +0.041 C 
BRANCH  17  18
ATOM     18  CG  GLN A   4       6.437  -0.092  19.218  0.00  0.00    +0.098 C 
BRANCH  18  19
ATOM     19  CD  GLN A   4       5.676   0.959  18.427  0.00  0.00    +0.211 C 
ATOM     20  OE1 GLN A   4       6.059   1.409  17.347  0.00  0.00    -0.276 OA
ATOM     21  NE2 GLN A   4       4.482   1.328  18.971  0.00  0.00    -0.329 N 
ATOM     22 HE21 GLN A   4       4.216   1.078  19.917  0.00  0.00    +0.145 HD
ATOM     23 HE22 GLN A   4       3.943   2.058  18.526  0.00  0.00    +0.145 HD
ENDBRANCH  18  19
ENDBRANCH  17  18
ENDBRANCH   6  17
ENDBRANCH   4   6
ENDBRANCH   1   2
BRANCH   1  26
ATOM     24  C   LYS A   2       8.359  -4.236  24.712  0.00  0.00    +0.234 C 
ATOM     25  O   LYS A   2       8.963  -5.207  24.260  0.00  0.00    -0.274 OA
ATOM     26  N   LEU A   3       7.636  -3.363  23.933  0.00  0.00    -0.302 N 
ATOM     27  H   LEU A   3       7.256  -2.521  24.352  0.00  0.00    +0.150 HD
BRANCH  24  28
ATOM     28  CA  LYS A   2       8.408  -3.865  26.205  0.00  0.00    +0.159 C 
BRANCH  28  30
ATOM     29  C   THR A   1       7.713  -1.550  26.720  0.00  0.00    +0.233 C 
ATOM     30  N   LYS A   2       7.384  -2.857  26.425  0.00  0.00    -0.303 N 
ATOM     31  H   LYS A   2       6.423  -3.113  26.216  0.00  0.00    +0.149 HD
ATOM     32  O   THR A   1       8.878  -1.203  26.894  0.00  0.00    -0.274 OA
BRANCH  29  33
ATOM     33  CA  THR A   1       6.509  -0.592  26.759  0.00  0.00    +0.166 C 
BRANCH  33  34
ATOM     34  N   THR A   1       6.916   0.706  27.341  0.00  0.00    -0.318 NA
ATOM     35  H1  THR A   1       7.316   0.509  28.262  0.00  0.00    +0.119 HD
ATOM     36  H2  THR A   1       7.655   1.120  26.778  0.00  0.00    +0.119 HD
ENDBRANCH  33  34
BRANCH  33  37
ATOM     37  CB  THR A   1       5.936  -0.395  25.340  0.00  0.00    +0.137 C 
ATOM     38  CG2 THR A   1       5.317   0.986  25.138  0.00  0.00    +0.040 C 
BRANCH  37  39
ATOM     39  OG1 THR A   1       7.013  -0.530  24.397  0.00  0.00    -0.390 OA
ATOM     40  HG1 THR A   1       7.691  -1.087  24.818  0.00  0.00    +0.210 HD
ENDBRANCH  37  39
ENDBRANCH  33  37
ENDBRANCH  29  33
ENDBRANCH  28  30
BRANCH  28  41
ATOM     41  CB  LYS A   2       8.154  -5.100  27.086  0.00  0.00    +0.032 C 
BRANCH  41  42
ATOM     42  CG  LYS A   2       6.687  -5.225  27.496  0.00  0.00    +0.007 C 
BRANCH  42  43
ATOM     43  CD  LYS A   2       5.842  -6.031  26.508  0.00  0.00    +0.051 C 
BRANCH  43  44
ATOM     44  CE  LYS A   2       4.790  -6.812  27.281  0.00  0.00    +0.127 C 
BRANCH  44  45
ATOM     45  NZ  LYS A   2       5.396  -7.476  28.453  0.00  0.00    +0.219 N 
ATOM     46  HZ1 LYS A   2       4.710  -7.695  29.183  0.00  0.00    +0.199 HD
ATOM     47  HZ2 LYS A   2       6.112  -6.841  28.848  0.00  0.00    +0.199 HD
ATOM     48  HZ3 LYS A   2       5.891  -8.336  28.192  0.00  0.00    +0.199 HD
ENDBRANCH  44  45
ENDBRANCH  43  44
ENDBRANCH  42  43
ENDBRANCH  41  42
ENDBRANCH  28  41
ENDBRANCH  24  28
ENDBRANCH   1  26
BRANCH   1  49
ATOM     49  CB  LEU A   3       6.244  -3.351  21.895  0.00  0.00    +0.034 C 
BRANCH  49  50
ATOM     50  CG  LEU A   3       5.601  -4.738  21.687  0.00  0.00    -0.015 C 
ATOM     51  CD2 LEU A   3       6.690  -5.782  21.425  0.00  0.00    +0.007 C 
ATOM     52  CD1 LEU A   3       4.759  -5.171  22.889  0.00  0.00    +0.007 C 
ENDBRANCH  49  50
ENDBRANCH   1  49
TORSDOF 24
ENDMDL
MODEL 2
REMARK VINA RESULT:      -6.2      2.072      7.688
REMARK  Name = TKLQS-mmff94.pdb
REMARK  27 active torsions:
REMARK  status: ('A' for Active; 'I' for Inactive)
REMARK    1  A    between atoms: _1  and  _2
REMARK    2  A    between atoms: _2  and  _3
REMARK    3  A    between atoms: _2  and  _5
REMARK    4  A    between atoms: _5  and  _6
REMARK    5  A    between atoms: _5  and  _7
REMARK    6  A    between atoms: _15  and  _16
REMARK    7  A    between atoms: _16  and  _17
REMARK    8  A    between atoms: _16  and  _19
REMARK    9  A    between atoms: _19  and  _20
REMARK   10  A    between atoms: _20  and  _21
REMARK   11  A    between atoms: _21  and  _22
REMARK   12  A    between atoms: _22  and  _23
REMARK   13  A    between atoms: _37  and  _38
REMARK   14  A    between atoms: _38  and  _39
REMARK   15  A    between atoms: _38  and  _41
REMARK   16  A    between atoms: _41  and  _42
REMARK   17  A    between atoms: _42  and  _43
REMARK   18  A    between atoms: _42  and  _44
REMARK   19  A    between atoms: _56  and  _57
REMARK   20  A    between atoms: _57  and  _58
REMARK   21  A    between atoms: _57  and  _60
REMARK   22  A    between atoms: _60  and  _61
REMARK   23  A    between atoms: _61  and  _62
REMARK   24  A    between atoms: _73  and  _74
REMARK   25  A    between atoms: _74  and  _75
REMARK   26  A    between atoms: _74  and  _77
REMARK   27  A    between atoms: _77  and  _78
REMARK                            x       y       z     vdW  Elec       q    Type
REMARK                         _______ _______ _______ _____ _____    ______ ____
ROOT
ATOM      1  CA  LEU A   3       9.678   1.904  23.442  0.00  0.00    +0.159 C 
ENDROOT
BRANCH   1   2
ATOM      2  C   LEU A   3       9.976   0.817  24.501  0.00  0.00    +0.234 C 
ATOM      3  O   LEU A   3      11.115   0.577  24.911  0.00  0.00    -0.274 OA
ATOM      4  N   GLN A   4       8.876   0.152  24.979  0.00  0.00    -0.302 N 
ATOM      5  H   GLN A   4       7.940   0.387  24.649  0.00  0.00    +0.150 HD
BRANCH   4   6
ATOM      6  CA  GLN A   4       8.964  -0.906  25.985  0.00  0.00    +0.159 C 
BRANCH   6   7
ATOM      7  C   GLN A   4       8.819  -2.233  25.214  0.00  0.00    +0.234 C 
ATOM      8  O   GLN A   4       9.105  -2.327  24.020  0.00  0.00    -0.274 OA
ATOM      9  N   SER A   5       8.334  -3.291  25.933  0.00  0.00    -0.302 N 
ATOM     10  H   SER A   5       8.064  -3.192  26.908  0.00  0.00    +0.150 HD
BRANCH   9  11
ATOM     11  CA  SER A   5       8.028  -4.583  25.310  0.00  0.00    +0.161 C 
BRANCH  11  12
ATOM     12  CB  SER A   5       6.754  -5.107  25.957  0.00  0.00    +0.247 C 
ATOM     13  OG  SER A   5       5.866  -5.668  25.311  0.00  0.00    -0.299 OA
ENDBRANCH  11  12
BRANCH  11  14
ATOM     14  C   SER A   5       9.155  -5.608  25.460  0.00  0.00    +0.185 C 
BRANCH  14  15
ATOM     15  O   SER A   5      10.384  -5.091  24.953  0.00  0.00    -0.393 OA
ATOM     16  H   SER A   5      10.475  -5.419  24.040  0.00  0.00    +0.209 HD
ENDBRANCH  14  15
ENDBRANCH  11  14
ENDBRANCH   9  11
ENDBRANCH   6   7
BRANCH   6  17
ATOM     17  CB  GLN A   4       7.865  -0.735  27.048  0.00  0.00    +0.041 C 
BRANCH  17  18
ATOM     18  CG  GLN A   4       6.741   0.201  26.607  0.00  0.00    +0.098 C 
BRANCH  18  19
ATOM     19  CD  GLN A   4       5.746  -0.545  25.734  0.00  0.00    +0.211 C 
ATOM     20  OE1 GLN A   4       5.586  -0.317  24.535  0.00  0.00    -0.276 OA
ATOM     21  NE2 GLN A   4       5.078  -1.552  26.365  0.00  0.00    -0.329 N 
ATOM     22 HE21 GLN A   4       5.091  -1.664  27.373  0.00  0.00    +0.145 HD
ATOM     23 HE22 GLN A   4       4.365  -2.060  25.860  0.00  0.00    +0.145 HD
ENDBRANCH  18  19
ENDBRANCH  17  18
ENDBRANCH   6  17
ENDBRANCH   4   6
ENDBRANCH   1   2
BRANCH   1  26
ATOM     24  C   LYS A   2       8.608   0.447  21.729  0.00  0.00    +0.234 C 
ATOM     25  O   LYS A   2       9.674  -0.020  21.330  0.00  0.00    -0.274 OA
ATOM     26  N   LEU A   3       8.524   1.438  22.679  0.00  0.00    -0.302 N 
ATOM     27  H   LEU A   3       7.615   1.700  23.045  0.00  0.00    +0.150 HD
BRANCH  24  28
ATOM     28  CA  LYS A   2       7.248  -0.083  21.241  0.00  0.00    +0.159 C 
BRANCH  28  30
ATOM     29  C   THR A   1       6.198  -2.292  21.596  0.00  0.00    +0.233 C 
ATOM     30  N   LYS A   2       6.906  -1.215  22.088  0.00  0.00    -0.303 N 
ATOM     31  H   LYS A   2       7.326  -1.251  23.012  0.00  0.00    +0.149 HD
ATOM     32  O   THR A   1       5.753  -2.302  20.451  0.00  0.00    -0.274 OA
BRANCH  29  33
ATOM     33  CA  THR A   1       6.068  -3.463  22.585  0.00  0.00    +0.166 C 
BRANCH  33  34
ATOM     34  N   THR A   1       4.943  -3.217  23.514  0.00  0.00    -0.318 NA
ATOM     35  H1  THR A   1       4.626  -2.257  23.353  0.00  0.00    +0.119 HD
ATOM     36  H2  THR A   1       4.165  -3.830  23.283  0.00  0.00    +0.119 HD
ENDBRANCH  33  34
BRANCH  33  37
ATOM     37  CB  THR A   1       5.862  -4.788  21.822  0.00  0.00    +0.137 C 
ATOM     38  CG2 THR A   1       7.070  -5.717  21.909  0.00  0.00    +0.040 C 
BRANCH  37  39
ATOM     39  OG1 THR A   1       4.743  -5.475  22.407  0.00  0.00    -0.390 OA
ATOM     40  HG1 THR A   1       4.616  -5.104  23.299  0.00  0.00    +0.210 HD
ENDBRANCH  37  39
ENDBRANCH  33  37
ENDBRANCH  29  33
ENDBRANCH  28  30
BRANCH  28  41
ATOM     41  CB  LYS A   2       6.170   1.009  21.331  0.00  0.00    +0.032 C 
BRANCH  41  42
ATOM     42  CG  LYS A   2       5.980   1.745  20.005  0.00  0.00    +0.007 C 
BRANCH  42  43
ATOM     43  CD  LYS A   2       5.013   1.045  19.049  0.00  0.00    +0.051 C 
BRANCH  43  44
ATOM     44  CE  LYS A   2       5.807   0.443  17.899  0.00  0.00    +0.127 C 
BRANCH  44  45
ATOM     45  NZ  LYS A   2       5.750  -1.032  17.946  0.00  0.00    +0.219 N 
ATOM     46  HZ1 LYS A   2       6.599  -1.449  18.342  0.00  0.00    +0.199 HD
ATOM     47  HZ2 LYS A   2       5.627  -1.380  16.978  0.00  0.00    +0.199 HD
ATOM     48  HZ3 LYS A   2       4.936  -1.367  18.474  0.00  0.00    +0.199 HD
ENDBRANCH  44  45
ENDBRANCH  43  44
ENDBRANCH  42  43
ENDBRANCH  41  42
ENDBRANCH  28  41
ENDBRANCH  24  28
ENDBRANCH   1  26
BRANCH   1  49
ATOM     49  CB  LEU A   3       9.395   3.261  24.098  0.00  0.00    +0.034 C 
BRANCH  49  50
ATOM     50  CG  LEU A   3      10.185   4.437  23.487  0.00  0.00    -0.015 C 
ATOM     51  CD2 LEU A   3       9.960   5.703  24.317  0.00  0.00    +0.007 C 
ATOM     52  CD1 LEU A   3      11.684   4.143  23.400  0.00  0.00    +0.007 C 
ENDBRANCH  49  50
ENDBRANCH   1  49
TORSDOF 24
ENDMDL
MODEL 3
REMARK VINA RESULT:      -6.1      2.156      7.725
REMARK  Name = TKLQS-mmff94.pdb
REMARK  27 active torsions:
REMARK  status: ('A' for Active; 'I' for Inactive)
REMARK    1  A    between atoms: _1  and  _2
REMARK    2  A    between atoms: _2  and  _3
REMARK    3  A    between atoms: _2  and  _5
REMARK    4  A    between atoms: _5  and  _6
REMARK    5  A    between atoms: _5  and  _7
REMARK    6  A    between atoms: _15  and  _16
REMARK    7  A    between atoms: _16  and  _17
REMARK    8  A    between atoms: _16  and  _19
REMARK    9  A    between atoms: _19  and  _20
REMARK   10  A    between atoms: _20  and  _21
REMARK   11  A    between atoms: _21  and  _22
REMARK   12  A    between atoms: _22  and  _23
REMARK   13  A    between atoms: _37  and  _38
REMARK   14  A    between atoms: _38  and  _39
REMARK   15  A    between atoms: _38  and  _41
REMARK   16  A    between atoms: _41  and  _42
REMARK   17  A    between atoms: _42  and  _43
REMARK   18  A    between atoms: _42  and  _44
REMARK   19  A    between atoms: _56  and  _57
REMARK   20  A    between atoms: _57  and  _58
REMARK   21  A    between atoms: _57  and  _60
REMARK   22  A    between atoms: _60  and  _61
REMARK   23  A    between atoms: _61  and  _62
REMARK   24  A    between atoms: _73  and  _74
REMARK   25  A    between atoms: _74  and  _75
REMARK   26  A    between atoms: _74  and  _77
REMARK   27  A    between atoms: _77  and  _78
REMARK                            x       y       z     vdW  Elec       q    Type
REMARK                         _______ _______ _______ _____ _____    ______ ____
ROOT
ATOM      1  CA  LEU A   3       9.995   1.623  23.154  0.00  0.00    +0.159 C 
ENDROOT
BRANCH   1   2
ATOM      2  C   LEU A   3      10.110   0.742  24.420  0.00  0.00    +0.234 C 
ATOM      3  O   LEU A   3      11.185   0.519  24.984  0.00  0.00    -0.274 OA
ATOM      4  N   GLN A   4       8.923   0.242  24.893  0.00  0.00    -0.302 N 
ATOM      5  H   GLN A   4       8.043   0.464  24.428  0.00  0.00    +0.150 HD
BRANCH   4   6
ATOM      6  CA  GLN A   4       8.838  -0.609  26.078  0.00  0.00    +0.159 C 
BRANCH   6   7
ATOM      7  C   GLN A   4       8.733  -2.054  25.551  0.00  0.00    +0.234 C 
ATOM      8  O   GLN A   4       8.941  -2.333  24.371  0.00  0.00    -0.274 OA
ATOM      9  N   SER A   5       8.373  -3.000  26.472  0.00  0.00    -0.302 N 
ATOM     10  H   SER A   5       8.166  -2.752  27.436  0.00  0.00    +0.150 HD
BRANCH   9  11
ATOM     11  CA  SER A   5       8.117  -4.395  26.099  0.00  0.00    +0.161 C 
BRANCH  11  12
ATOM     12  CB  SER A   5       7.165  -4.973  27.136  0.00  0.00    +0.247 C 
ATOM     13  OG  SER A   5       7.468  -5.931  27.851  0.00  0.00    -0.299 OA
ENDBRANCH  11  12
BRANCH  11  14
ATOM     14  C   SER A   5       9.389  -5.243  26.019  0.00  0.00    +0.185 C 
BRANCH  14  15
ATOM     15  O   SER A   5       9.691  -5.581  24.667  0.00  0.00    -0.393 OA
ATOM     16  H   SER A   5       9.418  -6.507  24.538  0.00  0.00    +0.209 HD
ENDBRANCH  14  15
ENDBRANCH  11  14
ENDBRANCH   9  11
ENDBRANCH   6   7
BRANCH   6  17
ATOM     17  CB  GLN A   4       7.622  -0.220  26.937  0.00  0.00    +0.041 C 
BRANCH  17  18
ATOM     18  CG  GLN A   4       7.034   1.141  26.568  0.00  0.00    +0.098 C 
BRANCH  18  19
ATOM     19  CD  GLN A   4       6.941   2.025  27.800  0.00  0.00    +0.211 C 
ATOM     20  OE1 GLN A   4       6.339   3.099  27.825  0.00  0.00    -0.276 OA
ATOM     21  NE2 GLN A   4       7.523   1.507  28.918  0.00  0.00    -0.329 N 
ATOM     22 HE21 GLN A   4       8.138   0.701  28.887  0.00  0.00    +0.145 HD
ATOM     23 HE22 GLN A   4       7.543   2.061  29.764  0.00  0.00    +0.145 HD
ENDBRANCH  18  19
ENDBRANCH  17  18
ENDBRANCH   6  17
ENDBRANCH   4   6
ENDBRANCH   1   2
BRANCH   1  26
ATOM     24  C   LYS A   2       8.807  -0.004  21.692  0.00  0.00    +0.234 C 
ATOM     25  O   LYS A   2       9.817  -0.666  21.455  0.00  0.00    -0.274 OA
ATOM     26  N   LEU A   3       8.818   1.158  22.427  0.00  0.00    -0.302 N 
ATOM     27  H   LEU A   3       7.937   1.594  22.680  0.00  0.00    +0.150 HD
BRANCH  24  28
ATOM     28  CA  LYS A   2       7.409  -0.454  21.233  0.00  0.00    +0.159 C 
BRANCH  28  30
ATOM     29  C   THR A   1       6.142  -2.518  21.727  0.00  0.00    +0.233 C 
ATOM     30  N   LYS A   2       6.982  -1.505  22.143  0.00  0.00    -0.303 N 
ATOM     31  H   LYS A   2       7.432  -1.548  23.052  0.00  0.00    +0.149 HD
ATOM     32  O   THR A   1       5.653  -2.528  20.600  0.00  0.00    -0.274 OA
BRANCH  29  33
ATOM     33  CA  THR A   1       5.929  -3.626  22.773  0.00  0.00    +0.166 C 
BRANCH  33  34
ATOM     34  N   THR A   1       4.561  -4.179  22.650  0.00  0.00    -0.318 NA
ATOM     35  H1  THR A   1       4.078  -3.625  21.938  0.00  0.00    +0.119 HD
ATOM     36  H2  THR A   1       4.606  -5.135  22.306  0.00  0.00    +0.119 HD
ENDBRANCH  33  34
BRANCH  33  37
ATOM     37  CB  THR A   1       6.982  -4.740  22.596  0.00  0.00    +0.137 C 
ATOM     38  CG2 THR A   1       6.707  -5.629  21.387  0.00  0.00    +0.040 C 
BRANCH  37  39
ATOM     39  OG1 THR A   1       8.264  -4.120  22.397  0.00  0.00    -0.390 OA
ATOM     40  HG1 THR A   1       8.175  -3.523  21.633  0.00  0.00    +0.210 HD
ENDBRANCH  37  39
ENDBRANCH  33  37
ENDBRANCH  29  33
ENDBRANCH  28  30
BRANCH  28  41
ATOM     41  CB  LYS A   2       6.419   0.722  21.258  0.00  0.00    +0.032 C 
BRANCH  41  42
ATOM     42  CG  LYS A   2       6.357   1.455  19.919  0.00  0.00    +0.007 C 
BRANCH  42  43
ATOM     43  CD  LYS A   2       5.189   1.017  19.035  0.00  0.00    +0.051 C 
BRANCH  43  44
ATOM     44  CE  LYS A   2       5.737   0.272  17.826  0.00  0.00    +0.127 C 
BRANCH  44  45
ATOM     45  NZ  LYS A   2       5.731  -1.184  18.069  0.00  0.00    +0.219 N 
ATOM     46  HZ1 LYS A   2       5.174  -1.447  18.889  0.00  0.00    +0.199 HD
ATOM     47  HZ2 LYS A   2       6.710  -1.489  18.220  0.00  0.00    +0.199 HD
ATOM     48  HZ3 LYS A   2       5.393  -1.708  17.254  0.00  0.00    +0.199 HD
ENDBRANCH  44  45
ENDBRANCH  43  44
ENDBRANCH  42  43
ENDBRANCH  41  42
ENDBRANCH  28  41
ENDBRANCH  24  28
ENDBRANCH   1  26
BRANCH   1  49
ATOM     49  CB  LEU A   3       9.866   3.108  23.518  0.00  0.00    +0.034 C 
BRANCH  49  50
ATOM     50  CG  LEU A   3       8.433   3.548  23.884  0.00  0.00    -0.015 C 
ATOM     51  CD2 LEU A   3       8.441   4.279  25.230  0.00  0.00    +0.007 C 
ATOM     52  CD1 LEU A   3       7.814   4.452  22.817  0.00  0.00    +0.007 C 
ENDBRANCH  49  50
ENDBRANCH   1  49
TORSDOF 24
ENDMDL
MODEL 4
REMARK VINA RESULT:      -6.1      2.307      5.794
REMARK  Name = TKLQS-mmff94.pdb
REMARK  27 active torsions:
REMARK  status: ('A' for Active; 'I' for Inactive)
REMARK    1  A    between atoms: _1  and  _2
REMARK    2  A    between atoms: _2  and  _3
REMARK    3  A    between atoms: _2  and  _5
REMARK    4  A    between atoms: _5  and  _6
REMARK    5  A    between atoms: _5  and  _7
REMARK    6  A    between atoms: _15  and  _16
REMARK    7  A    between atoms: _16  and  _17
REMARK    8  A    between atoms: _16  and  _19
REMARK    9  A    between atoms: _19  and  _20
REMARK   10  A    between atoms: _20  and  _21
REMARK   11  A    between atoms: _21  and  _22
REMARK   12  A    between atoms: _22  and  _23
REMARK   13  A    between atoms: _37  and  _38
REMARK   14  A    between atoms: _38  and  _39
REMARK   15  A    between atoms: _38  and  _41
REMARK   16  A    between atoms: _41  and  _42
REMARK   17  A    between atoms: _42  and  _43
REMARK   18  A    between atoms: _42  and  _44
REMARK   19  A    between atoms: _56  and  _57
REMARK   20  A    between atoms: _57  and  _58
REMARK   21  A    between atoms: _57  and  _60
REMARK   22  A    between atoms: _60  and  _61
REMARK   23  A    between atoms: _61  and  _62
REMARK   24  A    between atoms: _73  and  _74
REMARK   25  A    between atoms: _74  and  _75
REMARK   26  A    between atoms: _74  and  _77
REMARK   27  A    between atoms: _77  and  _78
REMARK                            x       y       z     vdW  Elec       q    Type
REMARK                         _______ _______ _______ _____ _____    ______ ____
ROOT
ATOM      1  CA  LEU A   3       5.561   0.919  25.702  0.00  0.00    +0.159 C 
ENDROOT
BRANCH   1   2
ATOM      2  C   LEU A   3       5.327   1.706  24.392  0.00  0.00    +0.234 C 
ATOM      3  O   LEU A   3       4.276   2.306  24.150  0.00  0.00    -0.274 OA
ATOM      4  N   GLN A   4       6.386   1.715  23.519  0.00  0.00    -0.302 N 
ATOM      5  H   GLN A   4       7.257   1.238  23.752  0.00  0.00    +0.150 HD
BRANCH   4   6
ATOM      6  CA  GLN A   4       6.347   2.408  22.232  0.00  0.00    +0.159 C 
BRANCH   6   7
ATOM      7  C   GLN A   4       6.894   1.404  21.197  0.00  0.00    +0.234 C 
ATOM      8  O   GLN A   4       8.100   1.275  20.990  0.00  0.00    -0.274 OA
ATOM      9  N   SER A   5       5.954   0.685  20.511  0.00  0.00    -0.302 N 
ATOM     10  H   SER A   5       4.959   0.828  20.663  0.00  0.00    +0.150 HD
BRANCH   9  11
ATOM     11  CA  SER A   5       6.312  -0.221  19.414  0.00  0.00    +0.161 C 
BRANCH  11  12
ATOM     12  CB  SER A   5       5.752   0.379  18.133  0.00  0.00    +0.247 C 
ATOM     13  OG  SER A   5       6.412   1.127  17.409  0.00  0.00    -0.299 OA
ENDBRANCH  11  12
BRANCH  11  14
ATOM     14  C   SER A   5       5.781  -1.644  19.607  0.00  0.00    +0.185 C 
BRANCH  14  15
ATOM     15  O   SER A   5       5.523  -2.265  18.349  0.00  0.00    -0.393 OA
ATOM     16  H   SER A   5       5.918  -3.155  18.386  0.00  0.00    +0.209 HD
ENDBRANCH  14  15
ENDBRANCH  11  14
ENDBRANCH   9  11
ENDBRANCH   6   7
BRANCH   6  17
ATOM     17  CB  GLN A   4       7.189   3.695  22.285  0.00  0.00    +0.041 C 
BRANCH  17  18
ATOM     18  CG  GLN A   4       7.907   3.891  23.619  0.00  0.00    +0.098 C 
BRANCH  18  19
ATOM     19  CD  GLN A   4       9.409   3.973  23.402  0.00  0.00    +0.211 C 
ATOM     20  OE1 GLN A   4      10.130   4.816  23.936  0.00  0.00    -0.276 OA
ATOM     21  NE2 GLN A   4       9.925   2.987  22.615  0.00  0.00    -0.329 N 
ATOM     22 HE21 GLN A   4       9.340   2.375  22.058  0.00  0.00    +0.145 HD
ATOM     23 HE22 GLN A   4      10.910   3.006  22.386  0.00  0.00    +0.145 HD
ENDBRANCH  18  19
ENDBRANCH  17  18
ENDBRANCH   6  17
ENDBRANCH   4   6
ENDBRANCH   1   2
BRANCH   1  26
ATOM     24  C   LYS A   2       5.553  -1.514  25.177  0.00  0.00    +0.234 C 
ATOM     25  O   LYS A   2       4.374  -1.670  25.490  0.00  0.00    -0.274 OA
ATOM     26  N   LEU A   3       6.227  -0.325  25.329  0.00  0.00    -0.302 N 
ATOM     27  H   LEU A   3       7.163  -0.232  24.948  0.00  0.00    +0.150 HD
BRANCH  24  28
ATOM     28  CA  LYS A   2       6.380  -2.635  24.521  0.00  0.00    +0.159 C 
BRANCH  28  30
ATOM     29  C   THR A   1       8.476  -2.327  23.248  0.00  0.00    +0.233 C 
ATOM     30  N   LYS A   2       7.743  -2.141  24.402  0.00  0.00    -0.303 N 
ATOM     31  H   LYS A   2       8.086  -1.534  25.140  0.00  0.00    +0.149 HD
ATOM     32  O   THR A   1       8.042  -2.990  22.309  0.00  0.00    -0.274 OA
BRANCH  29  33
ATOM     33  CA  THR A   1       9.832  -1.600  23.241  0.00  0.00    +0.166 C 
BRANCH  33  34
ATOM     34  N   THR A   1      10.100  -1.044  21.896  0.00  0.00    -0.318 NA
ATOM     35  H1  THR A   1      10.145  -0.027  21.996  0.00  0.00    +0.119 HD
ATOM     36  H2  THR A   1      11.012  -1.353  21.571  0.00  0.00    +0.119 HD
ENDBRANCH  33  34
BRANCH  33  37
ATOM     37  CB  THR A   1       9.844  -0.480  24.303  0.00  0.00    +0.137 C 
ATOM     38  CG2 THR A   1      11.189   0.234  24.396  0.00  0.00    +0.040 C 
BRANCH  37  39
ATOM     39  OG1 THR A   1       8.857   0.499  23.936  0.00  0.00    -0.390 OA
ATOM     40  HG1 THR A   1       8.805   0.500  22.964  0.00  0.00    +0.210 HD
ENDBRANCH  37  39
ENDBRANCH  33  37
ENDBRANCH  29  33
ENDBRANCH  28  30
BRANCH  28  41
ATOM     41  CB  LYS A   2       6.338  -3.916  25.369  0.00  0.00    +0.032 C 
BRANCH  41  42
ATOM     42  CG  LYS A   2       7.267  -3.838  26.581  0.00  0.00    +0.007 C 
BRANCH  42  43
ATOM     43  CD  LYS A   2       8.143  -5.079  26.762  0.00  0.00    +0.051 C 
BRANCH  43  44
ATOM     44  CE  LYS A   2       8.819  -5.402  25.437  0.00  0.00    +0.127 C 
BRANCH  44  45
ATOM     45  NZ  LYS A   2      10.284  -5.479  25.610  0.00  0.00    +0.219 N 
ATOM     46  HZ1 LYS A   2      10.574  -5.362  26.586  0.00  0.00    +0.199 HD
ATOM     47  HZ2 LYS A   2      10.715  -4.728  25.042  0.00  0.00    +0.199 HD
ATOM     48  HZ3 LYS A   2      10.666  -6.362  25.252  0.00  0.00    +0.199 HD
ENDBRANCH  44  45
ENDBRANCH  43  44
ENDBRANCH  42  43
ENDBRANCH  41  42
ENDBRANCH  28  41
ENDBRANCH  24  28
ENDBRANCH   1  26
BRANCH   1  49
ATOM     49  CB  LEU A   3       6.413   1.725  26.692  0.00  0.00    +0.034 C 
BRANCH  49  50
ATOM     50  CG  LEU A   3       6.106   1.430  28.175  0.00  0.00    -0.015 C 
ATOM     51  CD2 LEU A   3       6.202   2.721  28.993  0.00  0.00    +0.007 C 
ATOM     52  CD1 LEU A   3       4.723   0.806  28.367  0.00  0.00    +0.007 C 
ENDBRANCH  49  50
ENDBRANCH   1  49
TORSDOF 24
ENDMDL
MODEL 5
REMARK VINA RESULT:      -6.1      1.043      1.453
REMARK  Name = TKLQS-mmff94.pdb
REMARK  27 active torsions:
REMARK  status: ('A' for Active; 'I' for Inactive)
REMARK    1  A    between atoms: _1  and  _2
REMARK    2  A    between atoms: _2  and  _3
REMARK    3  A    between atoms: _2  and  _5
REMARK    4  A    between atoms: _5  and  _6
REMARK    5  A    between atoms: _5  and  _7
REMARK    6  A    between atoms: _15  and  _16
REMARK    7  A    between atoms: _16  and  _17
REMARK    8  A    between atoms: _16  and  _19
REMARK    9  A    between atoms: _19  and  _20
REMARK   10  A    between atoms: _20  and  _21
REMARK   11  A    between atoms: _21  and  _22
REMARK   12  A    between atoms: _22  and  _23
REMARK   13  A    between atoms: _37  and  _38
REMARK   14  A    between atoms: _38  and  _39
REMARK   15  A    between atoms: _38  and  _41
REMARK   16  A    between atoms: _41  and  _42
REMARK   17  A    between atoms: _42  and  _43
REMARK   18  A    between atoms: _42  and  _44
REMARK   19  A    between atoms: _56  and  _57
REMARK   20  A    between atoms: _57  and  _58
REMARK   21  A    between atoms: _57  and  _60
REMARK   22  A    between atoms: _60  and  _61
REMARK   23  A    between atoms: _61  and  _62
REMARK   24  A    between atoms: _73  and  _74
REMARK   25  A    between atoms: _74  and  _75
REMARK   26  A    between atoms: _74  and  _77
REMARK   27  A    between atoms: _77  and  _78
REMARK                            x       y       z     vdW  Elec       q    Type
REMARK                         _______ _______ _______ _____ _____    ______ ____
ROOT
ATOM      1  CA  LEU A   3       7.860  -3.168  22.484  0.00  0.00    +0.159 C 
ENDROOT
BRANCH   1   2
ATOM      2  C   LEU A   3       8.671  -1.932  22.033  0.00  0.00    +0.234 C 
ATOM      3  O   LEU A   3       9.901  -1.938  21.936  0.00  0.00    -0.274 OA
ATOM      4  N   GLN A   4       7.922  -0.826  21.719  0.00  0.00    -0.302 N 
ATOM      5  H   GLN A   4       6.905  -0.852  21.777  0.00  0.00    +0.150 HD
BRANCH   4   6
ATOM      6  CA  GLN A   4       8.517   0.434  21.273  0.00  0.00    +0.159 C 
BRANCH   6   7
ATOM      7  C   GLN A   4       8.626   1.317  22.532  0.00  0.00    +0.234 C 
ATOM      8  O   GLN A   4       8.662   0.834  23.664  0.00  0.00    -0.274 OA
ATOM      9  N   SER A   5       8.659   2.667  22.313  0.00  0.00    -0.302 N 
ATOM     10  H   SER A   5       8.590   3.055  21.376  0.00  0.00    +0.150 HD
BRANCH   9  11
ATOM     11  CA  SER A   5       8.641   3.637  23.413  0.00  0.00    +0.161 C 
BRANCH  11  12
ATOM     12  CB  SER A   5       7.741   4.786  22.987  0.00  0.00    +0.247 C 
ATOM     13  OG  SER A   5       7.141   4.794  21.909  0.00  0.00    -0.299 OA
ENDBRANCH  11  12
BRANCH  11  14
ATOM     14  C   SER A   5      10.031   4.162  23.778  0.00  0.00    +0.185 C 
BRANCH  14  15
ATOM     15  O   SER A   5      10.276   5.426  23.163  0.00  0.00    -0.393 OA
ATOM     16  H   SER A   5      11.090   5.782  23.561  0.00  0.00    +0.209 HD
ENDBRANCH  14  15
ENDBRANCH  11  14
ENDBRANCH   9  11
ENDBRANCH   6   7
BRANCH   6  17
ATOM     17  CB  GLN A   4       7.648   1.088  20.185  0.00  0.00    +0.041 C 
BRANCH  17  18
ATOM     18  CG  GLN A   4       7.494   0.223  18.935  0.00  0.00    +0.098 C 
BRANCH  18  19
ATOM     19  CD  GLN A   4       6.041   0.189  18.494  0.00  0.00    +0.211 C 
ATOM     20  OE1 GLN A   4       5.675  -0.187  17.380  0.00  0.00    -0.276 OA
ATOM     21  NE2 GLN A   4       5.144   0.542  19.458  0.00  0.00    -0.329 N 
ATOM     22 HE21 GLN A   4       5.427   0.984  20.326  0.00  0.00    +0.145 HD
ATOM     23 HE22 GLN A   4       4.162   0.590  19.222  0.00  0.00    +0.145 HD
ENDBRANCH  18  19
ENDBRANCH  17  18
ENDBRANCH   6  17
ENDBRANCH   4   6
ENDBRANCH   1   2
BRANCH   1  26
ATOM     24  C   LYS A   2       8.398  -4.049  24.749  0.00  0.00    +0.234 C 
ATOM     25  O   LYS A   2       8.910  -5.083  24.324  0.00  0.00    -0.274 OA
ATOM     26  N   LEU A   3       7.792  -3.115  23.941  0.00  0.00    -0.302 N 
ATOM     27  H   LEU A   3       7.490  -2.233  24.341  0.00  0.00    +0.150 HD
BRANCH  24  28
ATOM     28  CA  LYS A   2       8.441  -3.667  26.239  0.00  0.00    +0.159 C 
BRANCH  28  30
ATOM     29  C   THR A   1       8.107  -1.280  26.788  0.00  0.00    +0.233 C 
ATOM     30  N   LYS A   2       7.589  -2.500  26.403  0.00  0.00    -0.303 N 
ATOM     31  H   LYS A   2       6.626  -2.576  26.088  0.00  0.00    +0.149 HD
ATOM     32  O   THR A   1       9.290  -1.150  27.093  0.00  0.00    -0.274 OA
BRANCH  29  33
ATOM     33  CA  THR A   1       7.090  -0.126  26.752  0.00  0.00    +0.166 C 
BRANCH  33  34
ATOM     34  N   THR A   1       7.755   1.119  26.308  0.00  0.00    -0.318 NA
ATOM     35  H1  THR A   1       8.641   1.182  26.816  0.00  0.00    +0.119 HD
ATOM     36  H2  THR A   1       7.983   1.053  25.319  0.00  0.00    +0.119 HD
ENDBRANCH  33  34
BRANCH  33  37
ATOM     37  CB  THR A   1       5.915  -0.478  25.814  0.00  0.00    +0.137 C 
ATOM     38  CG2 THR A   1       4.838   0.603  25.783  0.00  0.00    +0.040 C 
BRANCH  37  39
ATOM     39  OG1 THR A   1       6.431  -0.617  24.480  0.00  0.00    -0.390 OA
ATOM     40  HG1 THR A   1       5.741  -0.293  23.873  0.00  0.00    +0.210 HD
ENDBRANCH  37  39
ENDBRANCH  33  37
ENDBRANCH  29  33
ENDBRANCH  28  30
BRANCH  28  41
ATOM     41  CB  LYS A   2       7.947  -4.828  27.118  0.00  0.00    +0.032 C 
BRANCH  41  42
ATOM     42  CG  LYS A   2       6.423  -4.860  27.230  0.00  0.00    +0.007 C 
BRANCH  42  43
ATOM     43  CD  LYS A   2       5.774  -5.990  26.427  0.00  0.00    +0.051 C 
BRANCH  43  44
ATOM     44  CE  LYS A   2       4.808  -6.744  27.330  0.00  0.00    +0.127 C 
BRANCH  44  45
ATOM     45  NZ  LYS A   2       5.543  -7.449  28.399  0.00  0.00    +0.219 N 
ATOM     46  HZ1 LYS A   2       6.095  -8.238  28.046  0.00  0.00    +0.199 HD
ATOM     47  HZ2 LYS A   2       4.851  -7.806  29.082  0.00  0.00    +0.199 HD
ATOM     48  HZ3 LYS A   2       6.160  -6.818  28.922  0.00  0.00    +0.199 HD
ENDBRANCH  44  45
ENDBRANCH  43  44
ENDBRANCH  42  43
ENDBRANCH  41  42
ENDBRANCH  28  41
ENDBRANCH  24  28
ENDBRANCH   1  26
BRANCH   1  49
ATOM     49  CB  LEU A   3       6.455  -3.169  21.867  0.00  0.00    +0.034 C 
BRANCH  49  50
ATOM     50  CG  LEU A   3       5.835  -4.573  21.708  0.00  0.00    -0.015 C 
ATOM     51  CD2 LEU A   3       6.943  -5.615  21.532  0.00  0.00    +0.007 C 
ATOM     52  CD1 LEU A   3       4.959  -4.957  22.902  0.00  0.00    +0.007 C 
ENDBRANCH  49  50
ENDBRANCH   1  49
TORSDOF 24
ENDMDL
MODEL 6
REMARK VINA RESULT:      -6.0      2.306      6.968
REMARK  Name = TKLQS-mmff94.pdb
REMARK  27 active torsions:
REMARK  status: ('A' for Active; 'I' for Inactive)
REMARK    1  A    between atoms: _1  and  _2
REMARK    2  A    between atoms: _2  and  _3
REMARK    3  A    between atoms: _2  and  _5
REMARK    4  A    between atoms: _5  and  _6
REMARK    5  A    between atoms: _5  and  _7
REMARK    6  A    between atoms: _15  and  _16
REMARK    7  A    between atoms: _16  and  _17
REMARK    8  A    between atoms: _16  and  _19
REMARK    9  A    between atoms: _19  and  _20
REMARK   10  A    between atoms: _20  and  _21
REMARK   11  A    between atoms: _21  and  _22
REMARK   12  A    between atoms: _22  and  _23
REMARK   13  A    between atoms: _37  and  _38
REMARK   14  A    between atoms: _38  and  _39
REMARK   15  A    between atoms: _38  and  _41
REMARK   16  A    between atoms: _41  and  _42
REMARK   17  A    between atoms: _42  and  _43
REMARK   18  A    between atoms: _42  and  _44
REMARK   19  A    between atoms: _56  and  _57
REMARK   20  A    between atoms: _57  and  _58
REMARK   21  A    between atoms: _57  and  _60
REMARK   22  A    between atoms: _60  and  _61
REMARK   23  A    between atoms: _61  and  _62
REMARK   24  A    between atoms: _73  and  _74
REMARK   25  A    between atoms: _74  and  _75
REMARK   26  A    between atoms: _74  and  _77
REMARK   27  A    between atoms: _77  and  _78
REMARK                            x       y       z     vdW  Elec       q    Type
REMARK                         _______ _______ _______ _____ _____    ______ ____
ROOT
ATOM      1  CA  LEU A   3       5.879  -3.207  22.483  0.00  0.00    +0.159 C 
ENDROOT
BRANCH   1   2
ATOM      2  C   LEU A   3       5.766  -2.844  23.982  0.00  0.00    +0.234 C 
ATOM      3  O   LEU A   3       4.706  -2.915  24.610  0.00  0.00    -0.274 OA
ATOM      4  N   GLN A   4       6.940  -2.459  24.578  0.00  0.00    -0.302 N 
ATOM      5  H   GLN A   4       7.811  -2.435  24.048  0.00  0.00    +0.150 HD
BRANCH   4   6
ATOM      6  CA  GLN A   4       7.026  -2.080  25.988  0.00  0.00    +0.159 C 
BRANCH   6   7
ATOM      7  C   GLN A   4       6.877  -0.546  26.021  0.00  0.00    +0.234 C 
ATOM      8  O   GLN A   4       7.831   0.195  26.258  0.00  0.00    -0.274 OA
ATOM      9  N   SER A   5       5.618  -0.064  25.793  0.00  0.00    -0.302 N 
ATOM     10  H   SER A   5       4.830  -0.686  25.637  0.00  0.00    +0.150 HD
BRANCH   9  11
ATOM     11  CA  SER A   5       5.295   1.362  25.909  0.00  0.00    +0.161 C 
BRANCH  11  12
ATOM     12  CB  SER A   5       3.959   1.466  26.630  0.00  0.00    +0.247 C 
ATOM     13  OG  SER A   5       3.567   2.513  27.151  0.00  0.00    -0.299 OA
ENDBRANCH  11  12
BRANCH  11  14
ATOM     14  C   SER A   5       5.222   2.078  24.558  0.00  0.00    +0.185 C 
BRANCH  14  15
ATOM     15  O   SER A   5       3.868   2.249  24.144  0.00  0.00    -0.393 OA
ATOM     16  H   SER A   5       3.692   1.575  23.463  0.00  0.00    +0.209 HD
ENDBRANCH  14  15
ENDBRANCH  11  14
ENDBRANCH   9  11
ENDBRANCH   6   7
BRANCH   6  17
ATOM     17  CB  GLN A   4       8.363  -2.542  26.592  0.00  0.00    +0.041 C 
BRANCH  17  18
ATOM     18  CG  GLN A   4       8.559  -4.056  26.537  0.00  0.00    +0.098 C 
BRANCH  18  19
ATOM     19  CD  GLN A   4       9.516  -4.423  25.415  0.00  0.00    +0.211 C 
ATOM     20  OE1 GLN A   4       9.672  -3.742  24.402  0.00  0.00    -0.276 OA
ATOM     21  NE2 GLN A   4      10.257  -5.544  25.643  0.00  0.00    -0.329 N 
ATOM     22 HE21 GLN A   4      10.047  -6.189  26.397  0.00  0.00    +0.145 HD
ATOM     23 HE22 GLN A   4      10.880  -5.877  24.920  0.00  0.00    +0.145 HD
ENDBRANCH  18  19
ENDBRANCH  17  18
ENDBRANCH   6  17
ENDBRANCH   4   6
ENDBRANCH   1   2
BRANCH   1  26
ATOM     24  C   LYS A   2       6.023  -1.748  20.471  0.00  0.00    +0.234 C 
ATOM     25  O   LYS A   2       5.512  -2.578  19.721  0.00  0.00    -0.274 OA
ATOM     26  N   LEU A   3       6.315  -1.997  21.791  0.00  0.00    -0.302 N 
ATOM     27  H   LEU A   3       6.631  -1.236  22.383  0.00  0.00    +0.150 HD
BRANCH  24  28
ATOM     28  CA  LYS A   2       6.332  -0.311  20.012  0.00  0.00    +0.159 C 
BRANCH  28  30
ATOM     29  C   THR A   1       8.171   0.637  21.364  0.00  0.00    +0.233 C 
ATOM     30  N   LYS A   2       7.746  -0.080  20.265  0.00  0.00    -0.303 N 
ATOM     31  H   LYS A   2       8.412  -0.583  19.686  0.00  0.00    +0.149 HD
ATOM     32  O   THR A   1       7.375   1.183  22.125  0.00  0.00    -0.274 OA
BRANCH  29  33
ATOM     33  CA  THR A   1       9.697   0.642  21.559  0.00  0.00    +0.166 C 
BRANCH  33  34
ATOM     34  N   THR A   1      10.171   2.023  21.801  0.00  0.00    -0.318 NA
ATOM     35  H1  THR A   1      10.950   2.189  21.159  0.00  0.00    +0.119 HD
ATOM     36  H2  THR A   1       9.438   2.686  21.558  0.00  0.00    +0.119 HD
ENDBRANCH  33  34
BRANCH  33  37
ATOM     37  CB  THR A   1      10.090  -0.280  22.733  0.00  0.00    +0.137 C 
ATOM     38  CG2 THR A   1      10.498   0.495  23.984  0.00  0.00    +0.040 C 
BRANCH  37  39
ATOM     39  OG1 THR A   1       8.949  -1.085  23.074  0.00  0.00    -0.390 OA
ATOM     40  HG1 THR A   1       9.122  -1.981  22.736  0.00  0.00    +0.210 HD
ENDBRANCH  37  39
ENDBRANCH  33  37
ENDBRANCH  29  33
ENDBRANCH  28  30
BRANCH  28  41
ATOM     41  CB  LYS A   2       6.011  -0.131  18.519  0.00  0.00    +0.032 C 
BRANCH  41  42
ATOM     42  CG  LYS A   2       5.180   1.124  18.254  0.00  0.00    +0.007 C 
BRANCH  42  43
ATOM     43  CD  LYS A   2       4.846   1.915  19.520  0.00  0.00    +0.051 C 
BRANCH  43  44
ATOM     44  CE  LYS A   2       3.341   2.129  19.584  0.00  0.00    +0.127 C 
BRANCH  44  45
ATOM     45  NZ  LYS A   2       2.932   3.210  18.666  0.00  0.00    +0.219 N 
ATOM     46  HZ1 LYS A   2       3.600   3.354  17.901  0.00  0.00    +0.199 HD
ATOM     47  HZ2 LYS A   2       2.858   4.086  19.214  0.00  0.00    +0.199 HD
ATOM     48  HZ3 LYS A   2       2.000   3.044  18.268  0.00  0.00    +0.199 HD
ENDBRANCH  44  45
ENDBRANCH  43  44
ENDBRANCH  42  43
ENDBRANCH  41  42
ENDBRANCH  28  41
ENDBRANCH  24  28
ENDBRANCH   1  26
BRANCH   1  49
ATOM     49  CB  LEU A   3       6.870  -4.356  22.260  0.00  0.00    +0.034 C 
BRANCH  49  50
ATOM     50  CG  LEU A   3       6.204  -5.718  21.972  0.00  0.00    -0.015 C 
ATOM     51  CD2 LEU A   3       4.805  -5.756  22.595  0.00  0.00    +0.007 C 
ATOM     52  CD1 LEU A   3       6.103  -6.007  20.473  0.00  0.00    +0.007 C 
ENDBRANCH  49  50
ENDBRANCH   1  49
TORSDOF 24
ENDMDL
MODEL 7
REMARK VINA RESULT:      -6.0      2.035      6.678
REMARK  Name = TKLQS-mmff94.pdb
REMARK  27 active torsions:
REMARK  status: ('A' for Active; 'I' for Inactive)
REMARK    1  A    between atoms: _1  and  _2
REMARK    2  A    between atoms: _2  and  _3
REMARK    3  A    between atoms: _2  and  _5
REMARK    4  A    between atoms: _5  and  _6
REMARK    5  A    between atoms: _5  and  _7
REMARK    6  A    between atoms: _15  and  _16
REMARK    7  A    between atoms: _16  and  _17
REMARK    8  A    between atoms: _16  and  _19
REMARK    9  A    between atoms: _19  and  _20
REMARK   10  A    between atoms: _20  and  _21
REMARK   11  A    between atoms: _21  and  _22
REMARK   12  A    between atoms: _22  and  _23
REMARK   13  A    between atoms: _37  and  _38
REMARK   14  A    between atoms: _38  and  _39
REMARK   15  A    between atoms: _38  and  _41
REMARK   16  A    between atoms: _41  and  _42
REMARK   17  A    between atoms: _42  and  _43
REMARK   18  A    between atoms: _42  and  _44
REMARK   19  A    between atoms: _56  and  _57
REMARK   20  A    between atoms: _57  and  _58
REMARK   21  A    between atoms: _57  and  _60
REMARK   22  A    between atoms: _60  and  _61
REMARK   23  A    between atoms: _61  and  _62
REMARK   24  A    between atoms: _73  and  _74
REMARK   25  A    between atoms: _74  and  _75
REMARK   26  A    between atoms: _74  and  _77
REMARK   27  A    between atoms: _77  and  _78
REMARK                            x       y       z     vdW  Elec       q    Type
REMARK                         _______ _______ _______ _____ _____    ______ ____
ROOT
ATOM      1  CA  LEU A   3       5.710  -3.048  22.582  0.00  0.00    +0.159 C 
ENDROOT
BRANCH   1   2
ATOM      2  C   LEU A   3       5.619  -2.852  24.113  0.00  0.00    +0.234 C 
ATOM      3  O   LEU A   3       4.608  -2.421  24.673  0.00  0.00    -0.274 OA
ATOM      4  N   GLN A   4       6.739  -3.220  24.816  0.00  0.00    -0.302 N 
ATOM      5  H   GLN A   4       7.553  -3.603  24.335  0.00  0.00    +0.150 HD
BRANCH   4   6
ATOM      6  CA  GLN A   4       6.835  -3.107  26.270  0.00  0.00    +0.159 C 
BRANCH   6   7
ATOM      7  C   GLN A   4       7.564  -1.775  26.541  0.00  0.00    +0.234 C 
ATOM      8  O   GLN A   4       7.267  -1.053  27.493  0.00  0.00    -0.274 OA
ATOM      9  N   SER A   5       8.542  -1.438  25.647  0.00  0.00    -0.302 N 
ATOM     10  H   SER A   5       8.752  -2.023  24.842  0.00  0.00    +0.150 HD
BRANCH   9  11
ATOM     11  CA  SER A   5       9.241  -0.150  25.702  0.00  0.00    +0.161 C 
BRANCH  11  12
ATOM     12  CB  SER A   5       8.198   0.939  25.497  0.00  0.00    +0.247 C 
ATOM     13  OG  SER A   5       7.173   0.758  24.835  0.00  0.00    -0.299 OA
ENDBRANCH  11  12
BRANCH  11  14
ATOM     14  C   SER A   5      10.352  -0.019  24.658  0.00  0.00    +0.185 C 
BRANCH  14  15
ATOM     15  O   SER A   5      10.083   1.055  23.759  0.00  0.00    -0.393 OA
ATOM     16  H   SER A   5      10.937   1.328  23.378  0.00  0.00    +0.209 HD
ENDBRANCH  14  15
ENDBRANCH  11  14
ENDBRANCH   9  11
ENDBRANCH   6   7
BRANCH   6  17
ATOM     17  CB  GLN A   4       7.595  -4.308  26.858  0.00  0.00    +0.041 C 
BRANCH  17  18
ATOM     18  CG  GLN A   4       8.033  -5.319  25.800  0.00  0.00    +0.098 C 
BRANCH  18  19
ATOM     19  CD  GLN A   4       9.402  -4.950  25.254  0.00  0.00    +0.211 C 
ATOM     20  OE1 GLN A   4       9.588  -4.061  24.422  0.00  0.00    -0.276 OA
ATOM     21  NE2 GLN A   4      10.441  -5.635  25.810  0.00  0.00    -0.329 N 
ATOM     22 HE21 GLN A   4      10.302  -6.458  26.385  0.00  0.00    +0.145 HD
ATOM     23 HE22 GLN A   4      11.377  -5.477  25.462  0.00  0.00    +0.145 HD
ENDBRANCH  18  19
ENDBRANCH  17  18
ENDBRANCH   6  17
ENDBRANCH   4   6
ENDBRANCH   1   2
BRANCH   1  26
ATOM     24  C   LYS A   2       7.112  -1.071  22.015  0.00  0.00    +0.234 C 
ATOM     25  O   LYS A   2       8.090  -1.471  22.644  0.00  0.00    -0.274 OA
ATOM     26  N   LEU A   3       5.901  -1.723  22.002  0.00  0.00    -0.302 N 
ATOM     27  H   LEU A   3       5.172  -1.402  21.374  0.00  0.00    +0.150 HD
BRANCH  24  28
ATOM     28  CA  LYS A   2       7.171   0.181  21.121  0.00  0.00    +0.159 C 
BRANCH  28  30
ATOM     29  C   THR A   1       7.069   2.495  21.982  0.00  0.00    +0.233 C 
ATOM     30  N   LYS A   2       7.690   1.264  21.941  0.00  0.00    -0.303 N 
ATOM     31  H   LYS A   2       8.440   1.041  22.589  0.00  0.00    +0.149 HD
ATOM     32  O   THR A   1       6.106   2.756  21.265  0.00  0.00    -0.274 OA
BRANCH  29  33
ATOM     33  CA  THR A   1       7.660   3.462  23.023  0.00  0.00    +0.166 C 
BRANCH  33  34
ATOM     34  N   THR A   1       9.130   3.535  22.867  0.00  0.00    -0.318 NA
ATOM     35  H1  THR A   1       9.500   3.966  23.717  0.00  0.00    +0.119 HD
ATOM     36  H2  THR A   1       9.517   2.596  22.816  0.00  0.00    +0.119 HD
ENDBRANCH  33  34
BRANCH  33  37
ATOM     37  CB  THR A   1       7.028   4.863  22.872  0.00  0.00    +0.137 C 
ATOM     38  CG2 THR A   1       7.457   5.828  23.973  0.00  0.00    +0.040 C 
BRANCH  37  39
ATOM     39  OG1 THR A   1       7.458   5.417  21.617  0.00  0.00    -0.390 OA
ATOM     40  HG1 THR A   1       7.504   4.680  20.981  0.00  0.00    +0.210 HD
ENDBRANCH  37  39
ENDBRANCH  33  37
ENDBRANCH  29  33
ENDBRANCH  28  30
BRANCH  28  41
ATOM     41  CB  LYS A   2       8.075  -0.058  19.901  0.00  0.00    +0.032 C 
BRANCH  41  42
ATOM     42  CG  LYS A   2       7.322   0.109  18.581  0.00  0.00    +0.007 C 
BRANCH  42  43
ATOM     43  CD  LYS A   2       5.801   0.051  18.734  0.00  0.00    +0.051 C 
BRANCH  43  44
ATOM     44  CE  LYS A   2       5.214   1.396  18.329  0.00  0.00    +0.127 C 
BRANCH  44  45
ATOM     45  NZ  LYS A   2       4.153   1.803  19.273  0.00  0.00    +0.219 N 
ATOM     46  HZ1 LYS A   2       3.366   1.147  19.290  0.00  0.00    +0.199 HD
ATOM     47  HZ2 LYS A   2       3.805   2.734  18.982  0.00  0.00    +0.199 HD
ATOM     48  HZ3 LYS A   2       4.513   1.918  20.227  0.00  0.00    +0.199 HD
ENDBRANCH  44  45
ENDBRANCH  43  44
ENDBRANCH  42  43
ENDBRANCH  41  42
ENDBRANCH  28  41
ENDBRANCH  24  28
ENDBRANCH   1  26
BRANCH   1  49
ATOM     49  CB  LEU A   3       6.865  -3.986  22.207  0.00  0.00    +0.034 C 
BRANCH  49  50
ATOM     50  CG  LEU A   3       6.448  -5.460  22.023  0.00  0.00    -0.015 C 
ATOM     51  CD2 LEU A   3       5.196  -5.755  22.854  0.00  0.00    +0.007 C 
ATOM     52  CD1 LEU A   3       6.181  -5.807  20.557  0.00  0.00    +0.007 C 
ENDBRANCH  49  50
ENDBRANCH   1  49
TORSDOF 24
ENDMDL
MODEL 8
REMARK VINA RESULT:      -6.0      2.335      6.382
REMARK  Name = TKLQS-mmff94.pdb
REMARK  27 active torsions:
REMARK  status: ('A' for Active; 'I' for Inactive)
REMARK    1  A    between atoms: _1  and  _2
REMARK    2  A    between atoms: _2  and  _3
REMARK    3  A    between atoms: _2  and  _5
REMARK    4  A    between atoms: _5  and  _6
REMARK    5  A    between atoms: _5  and  _7
REMARK    6  A    between atoms: _15  and  _16
REMARK    7  A    between atoms: _16  and  _17
REMARK    8  A    between atoms: _16  and  _19
REMARK    9  A    between atoms: _19  and  _20
REMARK   10  A    between atoms: _20  and  _21
REMARK   11  A    between atoms: _21  and  _22
REMARK   12  A    between atoms: _22  and  _23
REMARK   13  A    between atoms: _37  and  _38
REMARK   14  A    between atoms: _38  and  _39
REMARK   15  A    between atoms: _38  and  _41
REMARK   16  A    between atoms: _41  and  _42
REMARK   17  A    between atoms: _42  and  _43
REMARK   18  A    between atoms: _42  and  _44
REMARK   19  A    between atoms: _56  and  _57
REMARK   20  A    between atoms: _57  and  _58
REMARK   21  A    between atoms: _57  and  _60
REMARK   22  A    between atoms: _60  and  _61
REMARK   23  A    between atoms: _61  and  _62
REMARK   24  A    between atoms: _73  and  _74
REMARK   25  A    between atoms: _74  and  _75
REMARK   26  A    between atoms: _74  and  _77
REMARK   27  A    between atoms: _77  and  _78
REMARK                            x       y       z     vdW  Elec       q    Type
REMARK                         _______ _______ _______ _____ _____    ______ ____
ROOT
ATOM      1  CA  LEU A   3       4.964   1.242  25.521  0.00  0.00    +0.159 C 
ENDROOT
BRANCH   1   2
ATOM      2  C   LEU A   3       5.242   2.108  24.270  0.00  0.00    +0.234 C 
ATOM      3  O   LEU A   3       4.506   3.034  23.921  0.00  0.00    -0.274 OA
ATOM      4  N   GLN A   4       6.387   1.790  23.584  0.00  0.00    -0.302 N 
ATOM      5  H   GLN A   4       6.997   1.040  23.908  0.00  0.00    +0.150 HD
BRANCH   4   6
ATOM      6  CA  GLN A   4       6.811   2.501  22.379  0.00  0.00    +0.159 C 
BRANCH   6   7
ATOM      7  C   GLN A   4       7.224   1.409  21.371  0.00  0.00    +0.234 C 
ATOM      8  O   GLN A   4       8.390   1.272  21.002  0.00  0.00    -0.274 OA
ATOM      9  N   SER A   5       6.211   0.620  20.898  0.00  0.00    -0.302 N 
ATOM     10  H   SER A   5       5.246   0.768  21.180  0.00  0.00    +0.150 HD
BRANCH   9  11
ATOM     11  CA  SER A   5       6.426  -0.380  19.848  0.00  0.00    +0.161 C 
BRANCH  11  12
ATOM     12  CB  SER A   5       5.613   0.053  18.637  0.00  0.00    +0.247 C 
ATOM     13  OG  SER A   5       5.877  -0.323  17.493  0.00  0.00    -0.299 OA
ENDBRANCH  11  12
BRANCH  11  14
ATOM     14  C   SER A   5       6.029  -1.797  20.271  0.00  0.00    +0.185 C 
BRANCH  14  15
ATOM     15  O   SER A   5       5.806  -1.864  21.678  0.00  0.00    -0.393 OA
ATOM     16  H   SER A   5       4.929  -2.268  21.808  0.00  0.00    +0.209 HD
ENDBRANCH  14  15
ENDBRANCH  11  14
ENDBRANCH   9  11
ENDBRANCH   6   7
BRANCH   6  17
ATOM     17  CB  GLN A   4       7.972   3.459  22.696  0.00  0.00    +0.041 C 
BRANCH  17  18
ATOM     18  CG  GLN A   4       8.763   3.056  23.940  0.00  0.00    +0.098 C 
BRANCH  18  19
ATOM     19  CD  GLN A   4      10.032   2.322  23.542  0.00  0.00    +0.211 C 
ATOM     20  OE1 GLN A   4      10.422   1.290  24.087  0.00  0.00    -0.276 OA
ATOM     21  NE2 GLN A   4      10.687   2.855  22.472  0.00  0.00    -0.329 N 
ATOM     22 HE21 GLN A   4      10.464   3.773  22.102  0.00  0.00    +0.145 HD
ATOM     23 HE22 GLN A   4      11.566   2.449  22.181  0.00  0.00    +0.145 HD
ENDBRANCH  18  19
ENDBRANCH  17  18
ENDBRANCH   6  17
ENDBRANCH   4   6
ENDBRANCH   1   2
BRANCH   1  26
ATOM     24  C   LYS A   2       5.533  -1.182  25.527  0.00  0.00    +0.234 C 
ATOM     25  O   LYS A   2       4.379  -1.544  25.751  0.00  0.00    -0.274 OA
ATOM     26  N   LEU A   3       5.918   0.138  25.486  0.00  0.00    -0.302 N 
ATOM     27  H   LEU A   3       6.858   0.372  25.186  0.00  0.00    +0.150 HD
BRANCH  24  28
ATOM     28  CA  LYS A   2       6.657  -2.182  25.205  0.00  0.00    +0.159 C 
BRANCH  28  30
ATOM     29  C   THR A   1       6.138  -4.472  24.432  0.00  0.00    +0.233 C 
ATOM     30  N   LYS A   2       6.129  -3.109  24.216  0.00  0.00    -0.303 N 
ATOM     31  H   LYS A   2       5.628  -2.714  23.426  0.00  0.00    +0.149 HD
ATOM     32  O   THR A   1       6.668  -4.964  25.425  0.00  0.00    -0.274 OA
BRANCH  29  33
ATOM     33  CA  THR A   1       5.395  -5.283  23.355  0.00  0.00    +0.166 C 
BRANCH  33  34
ATOM     34  N   THR A   1       4.502  -4.393  22.581  0.00  0.00    -0.318 NA
ATOM     35  H1  THR A   1       4.512  -4.727  21.613  0.00  0.00    +0.119 HD
ATOM     36  H2  THR A   1       3.547  -4.486  22.918  0.00  0.00    +0.119 HD
ENDBRANCH  33  34
BRANCH  33  37
ATOM     37  CB  THR A   1       6.405  -5.984  22.422  0.00  0.00    +0.137 C 
ATOM     38  CG2 THR A   1       6.147  -5.694  20.946  0.00  0.00    +0.040 C 
BRANCH  37  39
ATOM     39  OG1 THR A   1       7.721  -5.498  22.737  0.00  0.00    -0.390 OA
ATOM     40  HG1 THR A   1       8.167  -5.316  21.890  0.00  0.00    +0.210 HD
ENDBRANCH  37  39
ENDBRANCH  33  37
ENDBRANCH  29  33
ENDBRANCH  28  30
BRANCH  28  41
ATOM     41  CB  LYS A   2       7.899  -1.457  24.662  0.00  0.00    +0.032 C 
BRANCH  41  42
ATOM     42  CG  LYS A   2       9.179  -2.264  24.873  0.00  0.00    +0.007 C 
BRANCH  42  43
ATOM     43  CD  LYS A   2      10.029  -2.406  23.609  0.00  0.00    +0.051 C 
BRANCH  43  44
ATOM     44  CE  LYS A   2       9.244  -1.862  22.424  0.00  0.00    +0.127 C 
BRANCH  44  45
ATOM     45  NZ  LYS A   2      10.061  -0.898  21.660  0.00  0.00    +0.219 N 
ATOM     46  HZ1 LYS A   2      10.412  -1.288  20.779  0.00  0.00    +0.199 HD
ATOM     47  HZ2 LYS A   2      10.868  -0.624  22.249  0.00  0.00    +0.199 HD
ATOM     48  HZ3 LYS A   2       9.547  -0.033  21.461  0.00  0.00    +0.199 HD
ENDBRANCH  44  45
ENDBRANCH  43  44
ENDBRANCH  42  43
ENDBRANCH  41  42
ENDBRANCH  28  41
ENDBRANCH  24  28
ENDBRANCH   1  26
BRANCH   1  49
ATOM     49  CB  LEU A   3       5.115   2.060  26.811  0.00  0.00    +0.034 C 
BRANCH  49  50
ATOM     50  CG  LEU A   3       6.573   2.221  27.290  0.00  0.00    -0.015 C 
ATOM     51  CD2 LEU A   3       7.004   3.686  27.163  0.00  0.00    +0.007 C 
ATOM     52  CD1 LEU A   3       6.762   1.758  28.735  0.00  0.00    +0.007 C 
ENDBRANCH  49  50
ENDBRANCH   1  49
TORSDOF 24
ENDMDL
MODEL 9
REMARK VINA RESULT:      -5.9      2.079      6.034
REMARK  Name = TKLQS-mmff94.pdb
REMARK  27 active torsions:
REMARK  status: ('A' for Active; 'I' for Inactive)
REMARK    1  A    between atoms: _1  and  _2
REMARK    2  A    between atoms: _2  and  _3
REMARK    3  A    between atoms: _2  and  _5
REMARK    4  A    between atoms: _5  and  _6
REMARK    5  A    between atoms: _5  and  _7
REMARK    6  A    between atoms: _15  and  _16
REMARK    7  A    between atoms: _16  and  _17
REMARK    8  A    between atoms: _16  and  _19
REMARK    9  A    between atoms: _19  and  _20
REMARK   10  A    between atoms: _20  and  _21
REMARK   11  A    between atoms: _21  and  _22
REMARK   12  A    between atoms: _22  and  _23
REMARK   13  A    between atoms: _37  and  _38
REMARK   14  A    between atoms: _38  and  _39
REMARK   15  A    between atoms: _38  and  _41
REMARK   16  A    between atoms: _41  and  _42
REMARK   17  A    between atoms: _42  and  _43
REMARK   18  A    between atoms: _42  and  _44
REMARK   19  A    between atoms: _56  and  _57
REMARK   20  A    between atoms: _57  and  _58
REMARK   21  A    between atoms: _57  and  _60
REMARK   22  A    between atoms: _60  and  _61
REMARK   23  A    between atoms: _61  and  _62
REMARK   24  A    between atoms: _73  and  _74
REMARK   25  A    between atoms: _74  and  _75
REMARK   26  A    between atoms: _74  and  _77
REMARK   27  A    between atoms: _77  and  _78
REMARK                            x       y       z     vdW  Elec       q    Type
REMARK                         _______ _______ _______ _____ _____    ______ ____
ROOT
ATOM      1  CA  LEU A   3       5.998   1.361  24.691  0.00  0.00    +0.159 C 
ENDROOT
BRANCH   1   2
ATOM      2  C   LEU A   3       6.579   1.739  23.309  0.00  0.00    +0.234 C 
ATOM      3  O   LEU A   3       5.990   2.476  22.514  0.00  0.00    -0.274 OA
ATOM      4  N   GLN A   4       7.818   1.216  23.034  0.00  0.00    -0.302 N 
ATOM      5  H   GLN A   4       8.301   0.633  23.718  0.00  0.00    +0.150 HD
BRANCH   4   6
ATOM      6  CA  GLN A   4       8.524   1.466  21.778  0.00  0.00    +0.159 C 
BRANCH   6   7
ATOM      7  C   GLN A   4       8.127   0.311  20.836  0.00  0.00    +0.234 C 
ATOM      8  O   GLN A   4       8.814  -0.704  20.728  0.00  0.00    -0.274 OA
ATOM      9  N   SER A   5       6.980   0.497  20.115  0.00  0.00    -0.302 N 
ATOM     10  H   SER A   5       6.442   1.357  20.184  0.00  0.00    +0.150 HD
BRANCH   9  11
ATOM     11  CA  SER A   5       6.538  -0.456  19.092  0.00  0.00    +0.161 C 
BRANCH  11  12
ATOM     12  CB  SER A   5       5.759   0.330  18.048  0.00  0.00    +0.247 C 
ATOM     13  OG  SER A   5       6.244   1.288  17.442  0.00  0.00    -0.299 OA
ENDBRANCH  11  12
BRANCH  11  14
ATOM     14  C   SER A   5       5.674  -1.588  19.653  0.00  0.00    +0.185 C 
BRANCH  14  15
ATOM     15  O   SER A   5       5.375  -2.549  18.643  0.00  0.00    -0.393 OA
ATOM     16  H   SER A   5       5.569  -3.427  19.019  0.00  0.00    +0.209 HD
ENDBRANCH  14  15
ENDBRANCH  11  14
ENDBRANCH   9  11
ENDBRANCH   6   7
BRANCH   6  17
ATOM     17  CB  GLN A   4      10.043   1.521  22.013  0.00  0.00    +0.041 C 
BRANCH  17  18
ATOM     18  CG  GLN A   4      10.419   1.940  23.433  0.00  0.00    +0.098 C 
BRANCH  18  19
ATOM     19  CD  GLN A   4      10.262   3.443  23.597  0.00  0.00    +0.211 C 
ATOM     20  OE1 GLN A   4       9.261   3.976  24.075  0.00  0.00    -0.276 OA
ATOM     21  NE2 GLN A   4      11.356   4.172  23.238  0.00  0.00    -0.329 N 
ATOM     22 HE21 GLN A   4      12.129   3.771  22.718  0.00  0.00    +0.145 HD
ATOM     23 HE22 GLN A   4      11.308   5.181  23.274  0.00  0.00    +0.145 HD
ENDBRANCH  18  19
ENDBRANCH  17  18
ENDBRANCH   6  17
ENDBRANCH   4   6
ENDBRANCH   1   2
BRANCH   1  26
ATOM     24  C   LYS A   2       5.820  -0.984  25.508  0.00  0.00    +0.234 C 
ATOM     25  O   LYS A   2       4.630  -0.886  25.805  0.00  0.00    -0.274 OA
ATOM     26  N   LEU A   3       6.576   0.069  25.048  0.00  0.00    -0.302 N 
ATOM     27  H   LEU A   3       7.518  -0.105  24.715  0.00  0.00    +0.150 HD
BRANCH  24  28
ATOM     28  CA  LYS A   2       6.569  -2.327  25.566  0.00  0.00    +0.159 C 
BRANCH  28  30
ATOM     29  C   THR A   1       5.666  -4.367  24.502  0.00  0.00    +0.233 C 
ATOM     30  N   LYS A   2       6.169  -3.087  24.392  0.00  0.00    -0.303 N 
ATOM     31  H   LYS A   2       6.140  -2.594  23.504  0.00  0.00    +0.149 HD
ATOM     32  O   THR A   1       5.616  -4.950  25.582  0.00  0.00    -0.274 OA
BRANCH  29  33
ATOM     33  CA  THR A   1       5.146  -4.953  23.177  0.00  0.00    +0.166 C 
BRANCH  33  34
ATOM     34  N   THR A   1       4.886  -3.862  22.211  0.00  0.00    -0.318 NA
ATOM     35  H1  THR A   1       5.173  -4.203  21.290  0.00  0.00    +0.119 HD
ATOM     36  H2  THR A   1       3.887  -3.676  22.163  0.00  0.00    +0.119 HD
ENDBRANCH  33  34
BRANCH  33  37
ATOM     37  CB  THR A   1       6.165  -5.958  22.599  0.00  0.00    +0.137 C 
ATOM     38  CG2 THR A   1       6.419  -5.753  21.108  0.00  0.00    +0.040 C 
BRANCH  37  39
ATOM     39  OG1 THR A   1       7.417  -5.772  23.283  0.00  0.00    -0.390 OA
ATOM     40  HG1 THR A   1       7.662  -6.633  23.667  0.00  0.00    +0.210 HD
ENDBRANCH  37  39
ENDBRANCH  33  37
ENDBRANCH  29  33
ENDBRANCH  28  30
BRANCH  28  41
ATOM     41  CB  LYS A   2       8.090  -2.107  25.578  0.00  0.00    +0.032 C 
BRANCH  41  42
ATOM     42  CG  LYS A   2       8.793  -2.862  24.450  0.00  0.00    +0.007 C 
BRANCH  42  43
ATOM     43  CD  LYS A   2       9.659  -4.024  24.939  0.00  0.00    +0.051 C 
BRANCH  43  44
ATOM     44  CE  LYS A   2       9.197  -4.432  26.330  0.00  0.00    +0.127 C 
BRANCH  44  45
ATOM     45  NZ  LYS A   2       8.510  -5.738  26.286  0.00  0.00    +0.219 N 
ATOM     46  HZ1 LYS A   2       8.310  -6.113  27.219  0.00  0.00    +0.199 HD
ATOM     47  HZ2 LYS A   2       9.121  -6.406  25.782  0.00  0.00    +0.199 HD
ATOM     48  HZ3 LYS A   2       7.636  -5.693  25.750  0.00  0.00    +0.199 HD
ENDBRANCH  44  45
ENDBRANCH  43  44
ENDBRANCH  42  43
ENDBRANCH  41  42
ENDBRANCH  28  41
ENDBRANCH  24  28
ENDBRANCH   1  26
BRANCH   1  49
ATOM     49  CB  LEU A   3       6.331   2.424  25.746  0.00  0.00    +0.034 C 
BRANCH  49  50
ATOM     50  CG  LEU A   3       5.158   3.369  26.083  0.00  0.00    -0.015 C 
ATOM     51  CD2 LEU A   3       5.354   4.714  25.378  0.00  0.00    +0.007 C 
ATOM     52  CD1 LEU A   3       3.805   2.776  25.683  0.00  0.00    +0.007 C 
ENDBRANCH  49  50
ENDBRANCH   1  49
TORSDOF 24
ENDMDL
MODEL 10
REMARK VINA RESULT:      -5.9      1.957      6.993
REMARK  Name = TKLQS-mmff94.pdb
REMARK  27 active torsions:
REMARK  status: ('A' for Active; 'I' for Inactive)
REMARK    1  A    between atoms: _1  and  _2
REMARK    2  A    between atoms: _2  and  _3
REMARK    3  A    between atoms: _2  and  _5
REMARK    4  A    between atoms: _5  and  _6
REMARK    5  A    between atoms: _5  and  _7
REMARK    6  A    between atoms: _15  and  _16
REMARK    7  A    between atoms: _16  and  _17
REMARK    8  A    between atoms: _16  and  _19
REMARK    9  A    between atoms: _19  and  _20
REMARK   10  A    between atoms: _20  and  _21
REMARK   11  A    between atoms: _21  and  _22
REMARK   12  A    between atoms: _22  and  _23
REMARK   13  A    between atoms: _37  and  _38
REMARK   14  A    between atoms: _38  and  _39
REMARK   15  A    between atoms: _38  and  _41
REMARK   16  A    between atoms: _41  and  _42
REMARK   17  A    between atoms: _42  and  _43
REMARK   18  A    between atoms: _42  and  _44
REMARK   19  A    between atoms: _56  and  _57
REMARK   20  A    between atoms: _57  and  _58
REMARK   21  A    between atoms: _57  and  _60
REMARK   22  A    between atoms: _60  and  _61
REMARK   23  A    between atoms: _61  and  _62
REMARK   24  A    between atoms: _73  and  _74
REMARK   25  A    between atoms: _74  and  _75
REMARK   26  A    between atoms: _74  and  _77
REMARK   27  A    between atoms: _77  and  _78
REMARK                            x       y       z     vdW  Elec       q    Type
REMARK                         _______ _______ _______ _____ _____    ______ ____
ROOT
ATOM      1  CA  LEU A   3       6.320  -3.220  22.408  0.00  0.00    +0.159 C 
ENDROOT
BRANCH   1   2
ATOM      2  C   LEU A   3       6.083  -2.907  23.903  0.00  0.00    +0.234 C 
ATOM      3  O   LEU A   3       4.960  -2.717  24.377  0.00  0.00    -0.274 OA
ATOM      4  N   GLN A   4       7.214  -2.881  24.680  0.00  0.00    -0.302 N 
ATOM      5  H   GLN A   4       8.129  -3.071  24.274  0.00  0.00    +0.150 HD
BRANCH   4   6
ATOM      6  CA  GLN A   4       7.183  -2.603  26.115  0.00  0.00    +0.159 C 
BRANCH   6   7
ATOM      7  C   GLN A   4       7.792  -1.197  26.284  0.00  0.00    +0.234 C 
ATOM      8  O   GLN A   4       8.982  -1.031  26.554  0.00  0.00    -0.274 OA
ATOM      9  N   SER A   5       6.925  -0.149  26.137  0.00  0.00    -0.302 N 
ATOM     10  H   SER A   5       5.937  -0.299  25.953  0.00  0.00    +0.150 HD
BRANCH   9  11
ATOM     11  CA  SER A   5       7.328   1.239  26.385  0.00  0.00    +0.161 C 
BRANCH  11  12
ATOM     12  CB  SER A   5       6.680   1.672  27.691  0.00  0.00    +0.247 C 
ATOM     13  OG  SER A   5       7.220   1.502  28.787  0.00  0.00    -0.299 OA
ENDBRANCH  11  12
BRANCH  11  14
ATOM     14  C   SER A   5       6.931   2.195  25.257  0.00  0.00    +0.185 C 
BRANCH  14  15
ATOM     15  O   SER A   5       8.082   2.652  24.549  0.00  0.00    -0.393 OA
ATOM     16  H   SER A   5       8.134   3.615  24.684  0.00  0.00    +0.209 HD
ENDBRANCH  14  15
ENDBRANCH  11  14
ENDBRANCH   9  11
ENDBRANCH   6   7
BRANCH   6  17
ATOM     17  CB  GLN A   4       7.975  -3.670  26.890  0.00  0.00    +0.041 C 
BRANCH  17  18
ATOM     18  CG  GLN A   4       7.701  -5.093  26.407  0.00  0.00    +0.098 C 
BRANCH  18  19
ATOM     19  CD  GLN A   4       6.411  -5.616  27.016  0.00  0.00    +0.211 C 
ATOM     20  OE1 GLN A   4       5.307  -5.492  26.486  0.00  0.00    -0.276 OA
ATOM     21  NE2 GLN A   4       6.570  -6.309  28.179  0.00  0.00    -0.329 N 
ATOM     22 HE21 GLN A   4       7.440  -6.303  28.699  0.00  0.00    +0.145 HD
ATOM     23 HE22 GLN A   4       5.751  -6.646  28.667  0.00  0.00    +0.145 HD
ENDBRANCH  18  19
ENDBRANCH  17  18
ENDBRANCH   6  17
ENDBRANCH   4   6
ENDBRANCH   1   2
BRANCH   1  26
ATOM     24  C   LYS A   2       6.237  -1.529  20.582  0.00  0.00    +0.234 C 
ATOM     25  O   LYS A   2       5.506  -2.208  19.863  0.00  0.00    -0.274 OA
ATOM     26  N   LEU A   3       6.745  -1.972  21.781  0.00  0.00    -0.302 N 
ATOM     27  H   LEU A   3       7.248  -1.324  22.378  0.00  0.00    +0.150 HD
BRANCH  24  28
ATOM     28  CA  LYS A   2       6.607  -0.076  20.233  0.00  0.00    +0.159 C 
BRANCH  28  30
ATOM     29  C   THR A   1       8.386   1.165  21.419  0.00  0.00    +0.233 C 
ATOM     30  N   LYS A   2       7.998   0.111  20.618  0.00  0.00    -0.303 N 
ATOM     31  H   LYS A   2       8.649  -0.636  20.395  0.00  0.00    +0.149 HD
ATOM     32  O   THR A   1       7.592   2.035  21.768  0.00  0.00    -0.274 OA
BRANCH  29  33
ATOM     33  CA  THR A   1       9.861   1.113  21.855  0.00  0.00    +0.166 C 
BRANCH  33  34
ATOM     34  N   THR A   1      10.308   2.457  22.282  0.00  0.00    -0.318 NA
ATOM     35  H1  THR A   1       9.684   3.135  21.838  0.00  0.00    +0.119 HD
ATOM     36  H2  THR A   1      10.190   2.556  23.287  0.00  0.00    +0.119 HD
ENDBRANCH  33  34
BRANCH  33  37
ATOM     37  CB  THR A   1      10.045   0.091  22.997  0.00  0.00    +0.137 C 
ATOM     38  CG2 THR A   1      10.850   0.649  24.167  0.00  0.00    +0.040 C 
BRANCH  37  39
ATOM     39  OG1 THR A   1       8.745  -0.267  23.495  0.00  0.00    -0.390 OA
ATOM     40  HG1 THR A   1       8.633  -1.221  23.338  0.00  0.00    +0.210 HD
ENDBRANCH  37  39
ENDBRANCH  33  37
ENDBRANCH  29  33
ENDBRANCH  28  30
BRANCH  28  41
ATOM     41  CB  LYS A   2       6.418   0.192  18.731  0.00  0.00    +0.032 C 
BRANCH  41  42
ATOM     42  CG  LYS A   2       5.316   1.217  18.462  0.00  0.00    +0.007 C 
BRANCH  42  43
ATOM     43  CD  LYS A   2       4.819   1.927  19.723  0.00  0.00    +0.051 C 
BRANCH  43  44
ATOM     44  CE  LYS A   2       3.312   2.112  19.622  0.00  0.00    +0.127 C 
BRANCH  44  45
ATOM     45  NZ  LYS A   2       2.985   3.176  18.652  0.00  0.00    +0.219 N 
ATOM     46  HZ1 LYS A   2       2.024   3.518  18.748  0.00  0.00    +0.199 HD
ATOM     47  HZ2 LYS A   2       3.108   2.790  17.698  0.00  0.00    +0.199 HD
ATOM     48  HZ3 LYS A   2       3.631   3.971  18.722  0.00  0.00    +0.199 HD
ENDBRANCH  44  45
ENDBRANCH  43  44
ENDBRANCH  42  43
ENDBRANCH  41  42
ENDBRANCH  28  41
ENDBRANCH  24  28
ENDBRANCH   1  26
BRANCH   1  49
ATOM     49  CB  LEU A   3       7.380  -4.316  22.228  0.00  0.00    +0.034 C 
BRANCH  49  50
ATOM     50  CG  LEU A   3       6.799  -5.710  21.911  0.00  0.00    -0.015 C 
ATOM     51  CD2 LEU A   3       5.803  -6.119  23.000  0.00  0.00    +0.007 C 
ATOM     52  CD1 LEU A   3       6.110  -5.753  20.546  0.00  0.00    +0.007 C 
ENDBRANCH  49  50
ENDBRANCH   1  49
TORSDOF 24
ENDMDL
MODEL 11
REMARK VINA RESULT:      -5.9      2.240      6.474
REMARK  Name = TKLQS-mmff94.pdb
REMARK  27 active torsions:
REMARK  status: ('A' for Active; 'I' for Inactive)
REMARK    1  A    between atoms: _1  and  _2
REMARK    2  A    between atoms: _2  and  _3
REMARK    3  A    between atoms: _2  and  _5
REMARK    4  A    between atoms: _5  and  _6
REMARK    5  A    between atoms: _5  and  _7
REMARK    6  A    between atoms: _15  and  _16
REMARK    7  A    between atoms: _16  and  _17
REMARK    8  A    between atoms: _16  and  _19
REMARK    9  A    between atoms: _19  and  _20
REMARK   10  A    between atoms: _20  and  _21
REMARK   11  A    between atoms: _21  and  _22
REMARK   12  A    between atoms: _22  and  _23
REMARK   13  A    between atoms: _37  and  _38
REMARK   14  A    between atoms: _38  and  _39
REMARK   15  A    between atoms: _38  and  _41
REMARK   16  A    between atoms: _41  and  _42
REMARK   17  A    between atoms: _42  and  _43
REMARK   18  A    between atoms: _42  and  _44
REMARK   19  A    between atoms: _56  and  _57
REMARK   20  A    between atoms: _57  and  _58
REMARK   21  A    between atoms: _57  and  _60
REMARK   22  A    between atoms: _60  and  _61
REMARK   23  A    between atoms: _61  and  _62
REMARK   24  A    between atoms: _73  and  _74
REMARK   25  A    between atoms: _74  and  _75
REMARK   26  A    between atoms: _74  and  _77
REMARK   27  A    between atoms: _77  and  _78
REMARK                            x       y       z     vdW  Elec       q    Type
REMARK                         _______ _______ _______ _____ _____    ______ ____
ROOT
ATOM      1  CA  LEU A   3       5.940  -2.397  22.642  0.00  0.00    +0.159 C 
ENDROOT
BRANCH   1   2
ATOM      2  C   LEU A   3       5.732  -2.261  24.168  0.00  0.00    +0.234 C 
ATOM      3  O   LEU A   3       4.838  -1.570  24.663  0.00  0.00    -0.274 OA
ATOM      4  N   GLN A   4       6.602  -2.987  24.942  0.00  0.00    -0.302 N 
ATOM      5  H   GLN A   4       7.315  -3.576  24.512  0.00  0.00    +0.150 HD
BRANCH   4   6
ATOM      6  CA  GLN A   4       6.556  -2.982  26.404  0.00  0.00    +0.159 C 
BRANCH   6   7
ATOM      7  C   GLN A   4       7.375  -1.753  26.846  0.00  0.00    +0.234 C 
ATOM      8  O   GLN A   4       8.599  -1.798  26.972  0.00  0.00    -0.274 OA
ATOM      9  N   SER A   5       6.655  -0.620  27.110  0.00  0.00    -0.302 N 
ATOM     10  H   SER A   5       5.641  -0.606  27.040  0.00  0.00    +0.150 HD
BRANCH   9  11
ATOM     11  CA  SER A   5       7.278   0.592  27.653  0.00  0.00    +0.161 C 
BRANCH  11  12
ATOM     12  CB  SER A   5       6.593   0.897  28.976  0.00  0.00    +0.247 C 
ATOM     13  OG  SER A   5       7.224   1.174  30.000  0.00  0.00    -0.299 OA
ENDBRANCH  11  12
BRANCH  11  14
ATOM     14  C   SER A   5       7.175   1.797  26.715  0.00  0.00    +0.185 C 
BRANCH  14  15
ATOM     15  O   SER A   5       7.619   1.460  25.402  0.00  0.00    -0.393 OA
ATOM     16  H   SER A   5       7.310   0.554  25.222  0.00  0.00    +0.209 HD
ENDBRANCH  14  15
ENDBRANCH  11  14
ENDBRANCH   9  11
ENDBRANCH   6   7
BRANCH   6  17
ATOM     17  CB  GLN A   4       7.134  -4.292  26.968  0.00  0.00    +0.041 C 
BRANCH  17  18
ATOM     18  CG  GLN A   4       7.483  -5.311  25.885  0.00  0.00    +0.098 C 
BRANCH  18  19
ATOM     19  CD  GLN A   4       8.972  -5.271  25.585  0.00  0.00    +0.211 C 
ATOM     20  OE1 GLN A   4       9.451  -5.504  24.475  0.00  0.00    -0.276 OA
ATOM     21  NE2 GLN A   4       9.754  -4.881  26.631  0.00  0.00    -0.329 N 
ATOM     22 HE21 GLN A   4       9.400  -4.821  27.580  0.00  0.00    +0.145 HD
ATOM     23 HE22 GLN A   4      10.759  -4.877  26.520  0.00  0.00    +0.145 HD
ENDBRANCH  18  19
ENDBRANCH  17  18
ENDBRANCH   6  17
ENDBRANCH   4   6
ENDBRANCH   1   2
BRANCH   1  26
ATOM     24  C   LYS A   2       7.601  -0.542  22.647  0.00  0.00    +0.234 C 
ATOM     25  O   LYS A   2       8.227  -0.985  23.608  0.00  0.00    -0.274 OA
ATOM     26  N   LEU A   3       6.442  -1.110  22.171  0.00  0.00    -0.302 N 
ATOM     27  H   LEU A   3       6.037  -0.763  21.308  0.00  0.00    +0.150 HD
BRANCH  24  28
ATOM     28  CA  LYS A   2       8.095   0.669  21.837  0.00  0.00    +0.159 C 
BRANCH  28  30
ATOM     29  C   THR A   1       6.364   2.422  22.043  0.00  0.00    +0.233 C 
ATOM     30  N   LYS A   2       7.548   1.857  22.473  0.00  0.00    -0.303 N 
ATOM     31  H   LYS A   2       7.990   2.173  23.331  0.00  0.00    +0.149 HD
ATOM     32  O   THR A   1       5.771   2.000  21.054  0.00  0.00    -0.274 OA
BRANCH  29  33
ATOM     33  CA  THR A   1       5.857   3.570  22.933  0.00  0.00    +0.166 C 
BRANCH  33  34
ATOM     34  N   THR A   1       5.279   4.642  22.092  0.00  0.00    -0.318 NA
ATOM     35  H1  THR A   1       5.585   5.533  22.490  0.00  0.00    +0.119 HD
ATOM     36  H2  THR A   1       5.663   4.587  21.152  0.00  0.00    +0.119 HD
ENDBRANCH  33  34
BRANCH  33  37
ATOM     37  CB  THR A   1       4.811   3.046  23.939  0.00  0.00    +0.137 C 
ATOM     38  CG2 THR A   1       3.376   3.336  23.508  0.00  0.00    +0.040 C 
BRANCH  37  39
ATOM     39  OG1 THR A   1       4.956   1.619  24.036  0.00  0.00    -0.390 OA
ATOM     40  HG1 THR A   1       4.327   1.226  23.406  0.00  0.00    +0.210 HD
ENDBRANCH  37  39
ENDBRANCH  33  37
ENDBRANCH  29  33
ENDBRANCH  28  30
BRANCH  28  41
ATOM     41  CB  LYS A   2       9.631   0.724  21.814  0.00  0.00    +0.032 C 
BRANCH  41  42
ATOM     42  CG  LYS A   2      10.167   2.089  22.244  0.00  0.00    +0.007 C 
BRANCH  42  43
ATOM     43  CD  LYS A   2      10.642   2.129  23.698  0.00  0.00    +0.051 C 
BRANCH  43  44
ATOM     44  CE  LYS A   2      11.007   0.718  24.136  0.00  0.00    +0.127 C 
BRANCH  44  45
ATOM     45  NZ  LYS A   2      10.274   0.352  25.364  0.00  0.00    +0.219 N 
ATOM     46  HZ1 LYS A   2      10.876  -0.085  26.070  0.00  0.00    +0.199 HD
ATOM     47  HZ2 LYS A   2       9.526  -0.316  25.104  0.00  0.00    +0.199 HD
ATOM     48  HZ3 LYS A   2       9.801   1.160  25.784  0.00  0.00    +0.199 HD
ENDBRANCH  44  45
ENDBRANCH  43  44
ENDBRANCH  42  43
ENDBRANCH  41  42
ENDBRANCH  28  41
ENDBRANCH  24  28
ENDBRANCH   1  26
BRANCH   1  49
ATOM     49  CB  LEU A   3       6.925  -3.526  22.312  0.00  0.00    +0.034 C 
BRANCH  49  50
ATOM     50  CG  LEU A   3       6.260  -4.801  21.751  0.00  0.00    -0.015 C 
ATOM     51  CD2 LEU A   3       7.307  -5.907  21.591  0.00  0.00    +0.007 C 
ATOM     52  CD1 LEU A   3       5.122  -5.301  22.643  0.00  0.00    +0.007 C 
ENDBRANCH  49  50
ENDBRANCH   1  49
TORSDOF 24
ENDMDL
MODEL 12
REMARK VINA RESULT:      -5.9      2.122      5.213
REMARK  Name = TKLQS-mmff94.pdb
REMARK  27 active torsions:
REMARK  status: ('A' for Active; 'I' for Inactive)
REMARK    1  A    between atoms: _1  and  _2
REMARK    2  A    between atoms: _2  and  _3
REMARK    3  A    between atoms: _2  and  _5
REMARK    4  A    between atoms: _5  and  _6
REMARK    5  A    between atoms: _5  and  _7
REMARK    6  A    between atoms: _15  and  _16
REMARK    7  A    between atoms: _16  and  _17
REMARK    8  A    between atoms: _16  and  _19
REMARK    9  A    between atoms: _19  and  _20
REMARK   10  A    between atoms: _20  and  _21
REMARK   11  A    between atoms: _21  and  _22
REMARK   12  A    between atoms: _22  and  _23
REMARK   13  A    between atoms: _37  and  _38
REMARK   14  A    between atoms: _38  and  _39
REMARK   15  A    between atoms: _38  and  _41
REMARK   16  A    between atoms: _41  and  _42
REMARK   17  A    between atoms: _42  and  _43
REMARK   18  A    between atoms: _42  and  _44
REMARK   19  A    between atoms: _56  and  _57
REMARK   20  A    between atoms: _57  and  _58
REMARK   21  A    between atoms: _57  and  _60
REMARK   22  A    between atoms: _60  and  _61
REMARK   23  A    between atoms: _61  and  _62
REMARK   24  A    between atoms: _73  and  _74
REMARK   25  A    between atoms: _74  and  _75
REMARK   26  A    between atoms: _74  and  _77
REMARK   27  A    between atoms: _77  and  _78
REMARK                            x       y       z     vdW  Elec       q    Type
REMARK                         _______ _______ _______ _____ _____    ______ ____
ROOT
ATOM      1  CA  LEU A   3       6.891  -1.832  25.815  0.00  0.00    +0.159 C 
ENDROOT
BRANCH   1   2
ATOM      2  C   LEU A   3       8.102  -0.885  25.984  0.00  0.00    +0.234 C 
ATOM      3  O   LEU A   3       8.935  -1.017  26.885  0.00  0.00    -0.274 OA
ATOM      4  N   GLN A   4       8.205   0.104  25.038  0.00  0.00    -0.302 N 
ATOM      5  H   GLN A   4       7.523   0.177  24.284  0.00  0.00    +0.150 HD
BRANCH   4   6
ATOM      6  CA  GLN A   4       9.285   1.090  25.037  0.00  0.00    +0.159 C 
BRANCH   6   7
ATOM      7  C   GLN A   4       8.646   2.413  24.568  0.00  0.00    +0.234 C 
ATOM      8  O   GLN A   4       9.286   3.463  24.519  0.00  0.00    -0.274 OA
ATOM      9  N   SER A   5       7.321   2.349  24.232  0.00  0.00    -0.302 N 
ATOM     10  H   SER A   5       6.793   1.485  24.314  0.00  0.00    +0.150 HD
BRANCH   9  11
ATOM     11  CA  SER A   5       6.546   3.544  23.883  0.00  0.00    +0.161 C 
BRANCH  11  12
ATOM     12  CB  SER A   5       5.120   3.313  24.359  0.00  0.00    +0.247 C 
ATOM     13  OG  SER A   5       4.175   3.182  23.578  0.00  0.00    -0.299 OA
ENDBRANCH  11  12
BRANCH  11  14
ATOM     14  C   SER A   5       6.559   3.856  22.384  0.00  0.00    +0.185 C 
BRANCH  14  15
ATOM     15  O   SER A   5       7.829   3.553  21.812  0.00  0.00    -0.393 OA
ATOM     16  H   SER A   5       8.436   4.269  22.071  0.00  0.00    +0.209 HD
ENDBRANCH  14  15
ENDBRANCH  11  14
ENDBRANCH   9  11
ENDBRANCH   6   7
BRANCH   6  17
ATOM     17  CB  GLN A   4      10.426   0.641  24.108  0.00  0.00    +0.041 C 
BRANCH  17  18
ATOM     18  CG  GLN A   4      10.023   0.602  22.635  0.00  0.00    +0.098 C 
BRANCH  18  19
ATOM     19  CD  GLN A   4       9.752  -0.829  22.202  0.00  0.00    +0.211 C 
ATOM     20  OE1 GLN A   4       9.741  -1.786  22.976  0.00  0.00    -0.276 OA
ATOM     21  NE2 GLN A   4       9.446  -0.976  20.882  0.00  0.00    -0.329 N 
ATOM     22 HE21 GLN A   4       9.585  -0.233  20.206  0.00  0.00    +0.145 HD
ATOM     23 HE22 GLN A   4       9.301  -1.906  20.511  0.00  0.00    +0.145 HD
ENDBRANCH  18  19
ENDBRANCH  17  18
ENDBRANCH   6  17
ENDBRANCH   4   6
ENDBRANCH   1   2
BRANCH   1  26
ATOM     24  C   LYS A   2       5.840  -2.782  23.768  0.00  0.00    +0.234 C 
ATOM     25  O   LYS A   2       4.733  -2.913  24.288  0.00  0.00    -0.274 OA
ATOM     26  N   LEU A   3       6.953  -2.351  24.453  0.00  0.00    -0.302 N 
ATOM     27  H   LEU A   3       7.807  -2.157  23.941  0.00  0.00    +0.150 HD
BRANCH  24  28
ATOM     28  CA  LYS A   2       6.074  -3.032  22.268  0.00  0.00    +0.159 C 
BRANCH  28  30
ATOM     29  C   THR A   1       5.853  -1.535  20.313  0.00  0.00    +0.233 C 
ATOM     30  N   LYS A   2       6.198  -1.728  21.635  0.00  0.00    -0.303 N 
ATOM     31  H   LYS A   2       6.411  -0.936  22.235  0.00  0.00    +0.149 HD
ATOM     32  O   THR A   1       5.511  -2.470  19.594  0.00  0.00    -0.274 OA
BRANCH  29  33
ATOM     33  CA  THR A   1       5.894  -0.064  19.862  0.00  0.00    +0.166 C 
BRANCH  33  34
ATOM     34  N   THR A   1       6.718   0.729  20.801  0.00  0.00    -0.318 NA
ATOM     35  H1  THR A   1       7.153   0.067  21.449  0.00  0.00    +0.119 HD
ATOM     36  H2  THR A   1       7.471   1.189  20.294  0.00  0.00    +0.119 HD
ENDBRANCH  33  34
BRANCH  33  37
ATOM     37  CB  THR A   1       6.453   0.040  18.427  0.00  0.00    +0.137 C 
ATOM     38  CG2 THR A   1       5.989   1.299  17.700  0.00  0.00    +0.040 C 
BRANCH  37  39
ATOM     39  OG1 THR A   1       7.888   0.087  18.506  0.00  0.00    -0.390 OA
ATOM     40  HG1 THR A   1       8.121   0.101  19.452  0.00  0.00    +0.210 HD
ENDBRANCH  37  39
ENDBRANCH  33  37
ENDBRANCH  29  33
ENDBRANCH  28  30
BRANCH  28  41
ATOM     41  CB  LYS A   2       7.345  -3.867  22.042  0.00  0.00    +0.032 C 
BRANCH  41  42
ATOM     42  CG  LYS A   2       7.237  -5.261  22.660  0.00  0.00    +0.007 C 
BRANCH  42  43
ATOM     43  CD  LYS A   2       6.015  -6.048  22.185  0.00  0.00    +0.051 C 
BRANCH  43  44
ATOM     44  CE  LYS A   2       5.128  -6.352  23.383  0.00  0.00    +0.127 C 
BRANCH  44  45
ATOM     45  NZ  LYS A   2       3.715  -6.464  22.967  0.00  0.00    +0.219 N 
ATOM     46  HZ1 LYS A   2       3.088  -6.679  23.748  0.00  0.00    +0.199 HD
ATOM     47  HZ2 LYS A   2       3.647  -7.222  22.265  0.00  0.00    +0.199 HD
ATOM     48  HZ3 LYS A   2       3.385  -5.612  22.498  0.00  0.00    +0.199 HD
ENDBRANCH  44  45
ENDBRANCH  43  44
ENDBRANCH  42  43
ENDBRANCH  41  42
ENDBRANCH  28  41
ENDBRANCH  24  28
ENDBRANCH   1  26
BRANCH   1  49
ATOM     49  CB  LEU A   3       6.927  -2.971  26.842  0.00  0.00    +0.034 C 
BRANCH  49  50
ATOM     50  CG  LEU A   3       7.410  -4.321  26.272  0.00  0.00    -0.015 C 
ATOM     51  CD2 LEU A   3       8.883  -4.540  26.630  0.00  0.00    +0.007 C 
ATOM     52  CD1 LEU A   3       6.579  -5.498  26.787  0.00  0.00    +0.007 C 
ENDBRANCH  49  50
ENDBRANCH   1  49
TORSDOF 24
ENDMDL
MODEL 13
REMARK VINA RESULT:      -5.9      2.357      5.833
REMARK  Name = TKLQS-mmff94.pdb
REMARK  27 active torsions:
REMARK  status: ('A' for Active; 'I' for Inactive)
REMARK    1  A    between atoms: _1  and  _2
REMARK    2  A    between atoms: _2  and  _3
REMARK    3  A    between atoms: _2  and  _5
REMARK    4  A    between atoms: _5  and  _6
REMARK    5  A    between atoms: _5  and  _7
REMARK    6  A    between atoms: _15  and  _16
REMARK    7  A    between atoms: _16  and  _17
REMARK    8  A    between atoms: _16  and  _19
REMARK    9  A    between atoms: _19  and  _20
REMARK   10  A    between atoms: _20  and  _21
REMARK   11  A    between atoms: _21  and  _22
REMARK   12  A    between atoms: _22  and  _23
REMARK   13  A    between atoms: _37  and  _38
REMARK   14  A    between atoms: _38  and  _39
REMARK   15  A    between atoms: _38  and  _41
REMARK   16  A    between atoms: _41  and  _42
REMARK   17  A    between atoms: _42  and  _43
REMARK   18  A    between atoms: _42  and  _44
REMARK   19  A    between atoms: _56  and  _57
REMARK   20  A    between atoms: _57  and  _58
REMARK   21  A    between atoms: _57  and  _60
REMARK   22  A    between atoms: _60  and  _61
REMARK   23  A    between atoms: _61  and  _62
REMARK   24  A    between atoms: _73  and  _74
REMARK   25  A    between atoms: _74  and  _75
REMARK   26  A    between atoms: _74  and  _77
REMARK   27  A    between atoms: _77  and  _78
REMARK                            x       y       z     vdW  Elec       q    Type
REMARK                         _______ _______ _______ _____ _____    ______ ____
ROOT
ATOM      1  CA  LEU A   3       5.598   0.561  25.851  0.00  0.00    +0.159 C 
ENDROOT
BRANCH   1   2
ATOM      2  C   LEU A   3       5.317   1.522  24.672  0.00  0.00    +0.234 C 
ATOM      3  O   LEU A   3       4.249   2.125  24.540  0.00  0.00    -0.274 OA
ATOM      4  N   GLN A   4       6.356   1.681  23.790  0.00  0.00    -0.302 N 
ATOM      5  H   GLN A   4       7.241   1.196  23.934  0.00  0.00    +0.150 HD
BRANCH   4   6
ATOM      6  CA  GLN A   4       6.273   2.550  22.617  0.00  0.00    +0.159 C 
BRANCH   6   7
ATOM      7  C   GLN A   4       6.846   1.729  21.444  0.00  0.00    +0.234 C 
ATOM      8  O   GLN A   4       8.058   1.625  21.253  0.00  0.00    -0.274 OA
ATOM      9  N   SER A   5       5.925   1.144  20.619  0.00  0.00    -0.302 N 
ATOM     10  H   SER A   5       4.927   1.269  20.763  0.00  0.00    +0.150 HD
BRANCH   9  11
ATOM     11  CA  SER A   5       6.312   0.433  19.396  0.00  0.00    +0.161 C 
BRANCH  11  12
ATOM     12  CB  SER A   5       5.709   1.190  18.223  0.00  0.00    +0.247 C 
ATOM     13  OG  SER A   5       6.311   1.351  17.158  0.00  0.00    -0.299 OA
ENDBRANCH  11  12
BRANCH  11  14
ATOM     14  C   SER A   5       5.853  -1.027  19.374  0.00  0.00    +0.185 C 
BRANCH  14  15
ATOM     15  O   SER A   5       5.841  -1.577  20.690  0.00  0.00    -0.393 OA
ATOM     16  H   SER A   5       6.497  -2.297  20.703  0.00  0.00    +0.209 HD
ENDBRANCH  14  15
ENDBRANCH  11  14
ENDBRANCH   9  11
ENDBRANCH   6   7
BRANCH   6  17
ATOM     17  CB  GLN A   4       7.063   3.849  22.849  0.00  0.00    +0.041 C 
BRANCH  17  18
ATOM     18  CG  GLN A   4       7.995   3.779  24.058  0.00  0.00    +0.098 C 
BRANCH  18  19
ATOM     19  CD  GLN A   4       9.427   4.063  23.636  0.00  0.00    +0.211 C 
ATOM     20  OE1 GLN A   4      10.059   5.058  23.994  0.00  0.00    -0.276 OA
ATOM     21  NE2 GLN A   4      10.001   3.088  22.877  0.00  0.00    -0.329 N 
ATOM     22 HE21 GLN A   4       9.462   2.338  22.459  0.00  0.00    +0.145 HD
ATOM     23 HE22 GLN A   4      10.936   3.230  22.518  0.00  0.00    +0.145 HD
ENDBRANCH  18  19
ENDBRANCH  17  18
ENDBRANCH   6  17
ENDBRANCH   4   6
ENDBRANCH   1   2
BRANCH   1  26
ATOM     24  C   LYS A   2       5.497  -1.774  24.992  0.00  0.00    +0.234 C 
ATOM     25  O   LYS A   2       4.327  -1.944  25.331  0.00  0.00    -0.274 OA
ATOM     26  N   LEU A   3       6.211  -0.634  25.279  0.00  0.00    -0.302 N 
ATOM     27  H   LEU A   3       7.133  -0.511  24.875  0.00  0.00    +0.150 HD
BRANCH  24  28
ATOM     28  CA  LYS A   2       6.264  -2.810  24.151  0.00  0.00    +0.159 C 
BRANCH  28  30
ATOM     29  C   THR A   1       8.484  -2.333  23.174  0.00  0.00    +0.233 C 
ATOM     30  N   LYS A   2       7.679  -2.499  24.282  0.00  0.00    -0.303 N 
ATOM     31  H   LYS A   2       8.023  -2.269  25.210  0.00  0.00    +0.149 HD
ATOM     32  O   THR A   1       8.063  -2.525  22.037  0.00  0.00    -0.274 OA
BRANCH  29  33
ATOM     33  CA  THR A   1       9.908  -1.850  23.500  0.00  0.00    +0.166 C 
BRANCH  33  34
ATOM     34  N   THR A   1      10.640  -1.558  22.247  0.00  0.00    -0.318 NA
ATOM     35  H1  THR A   1      11.635  -1.699  22.442  0.00  0.00    +0.119 HD
ATOM     36  H2  THR A   1      10.378  -2.230  21.530  0.00  0.00    +0.119 HD
ENDBRANCH  33  34
BRANCH  33  37
ATOM     37  CB  THR A   1       9.856  -0.599  24.402  0.00  0.00    +0.137 C 
ATOM     38  CG2 THR A   1      11.159   0.196  24.390  0.00  0.00    +0.040 C 
BRANCH  37  39
ATOM     39  OG1 THR A   1       8.816   0.265  23.913  0.00  0.00    -0.390 OA
ATOM     40  HG1 THR A   1       8.342  -0.225  23.218  0.00  0.00    +0.210 HD
ENDBRANCH  37  39
ENDBRANCH  33  37
ENDBRANCH  29  33
ENDBRANCH  28  30
BRANCH  28  41
ATOM     41  CB  LYS A   2       5.974  -4.238  24.640  0.00  0.00    +0.032 C 
BRANCH  41  42
ATOM     42  CG  LYS A   2       5.099  -5.019  23.660  0.00  0.00    +0.007 C 
BRANCH  42  43
ATOM     43  CD  LYS A   2       5.799  -6.235  23.050  0.00  0.00    +0.051 C 
BRANCH  43  44
ATOM     44  CE  LYS A   2       6.782  -5.758  21.991  0.00  0.00    +0.127 C 
BRANCH  44  45
ATOM     45  NZ  LYS A   2       6.157  -4.736  21.127  0.00  0.00    +0.219 N 
ATOM     46  HZ1 LYS A   2       5.167  -4.927  20.941  0.00  0.00    +0.199 HD
ATOM     47  HZ2 LYS A   2       6.668  -4.720  20.227  0.00  0.00    +0.199 HD
ATOM     48  HZ3 LYS A   2       6.246  -3.793  21.523  0.00  0.00    +0.199 HD
ENDBRANCH  44  45
ENDBRANCH  43  44
ENDBRANCH  42  43
ENDBRANCH  41  42
ENDBRANCH  28  41
ENDBRANCH  24  28
ENDBRANCH   1  26
BRANCH   1  49
ATOM     49  CB  LEU A   3       6.519   1.209  26.892  0.00  0.00    +0.034 C 
BRANCH  49  50
ATOM     50  CG  LEU A   3       5.880   1.373  28.287  0.00  0.00    -0.015 C 
ATOM     51  CD2 LEU A   3       4.880   0.240  28.538  0.00  0.00    +0.007 C 
ATOM     52  CD1 LEU A   3       6.925   1.389  29.404  0.00  0.00    +0.007 C 
ENDBRANCH  49  50
ENDBRANCH   1  49
TORSDOF 24
ENDMDL
MODEL 14
REMARK VINA RESULT:      -5.8      2.231      5.931
REMARK  Name = TKLQS-mmff94.pdb
REMARK  27 active torsions:
REMARK  status: ('A' for Active; 'I' for Inactive)
REMARK    1  A    between atoms: _1  and  _2
REMARK    2  A    between atoms: _2  and  _3
REMARK    3  A    between atoms: _2  and  _5
REMARK    4  A    between atoms: _5  and  _6
REMARK    5  A    between atoms: _5  and  _7
REMARK    6  A    between atoms: _15  and  _16
REMARK    7  A    between atoms: _16  and  _17
REMARK    8  A    between atoms: _16  and  _19
REMARK    9  A    between atoms: _19  and  _20
REMARK   10  A    between atoms: _20  and  _21
REMARK   11  A    between atoms: _21  and  _22
REMARK   12  A    between atoms: _22  and  _23
REMARK   13  A    between atoms: _37  and  _38
REMARK   14  A    between atoms: _38  and  _39
REMARK   15  A    between atoms: _38  and  _41
REMARK   16  A    between atoms: _41  and  _42
REMARK   17  A    between atoms: _42  and  _43
REMARK   18  A    between atoms: _42  and  _44
REMARK   19  A    between atoms: _56  and  _57
REMARK   20  A    between atoms: _57  and  _58
REMARK   21  A    between atoms: _57  and  _60
REMARK   22  A    between atoms: _60  and  _61
REMARK   23  A    between atoms: _61  and  _62
REMARK   24  A    between atoms: _73  and  _74
REMARK   25  A    between atoms: _74  and  _75
REMARK   26  A    between atoms: _74  and  _77
REMARK   27  A    between atoms: _77  and  _78
REMARK                            x       y       z     vdW  Elec       q    Type
REMARK                         _______ _______ _______ _____ _____    ______ ____
ROOT
ATOM      1  CA  LEU A   3       5.693   1.016  24.745  0.00  0.00    +0.159 C 
ENDROOT
BRANCH   1   2
ATOM      2  C   LEU A   3       6.594   1.447  23.564  0.00  0.00    +0.234 C 
ATOM      3  O   LEU A   3       6.262   2.315  22.752  0.00  0.00    -0.274 OA
ATOM      4  N   GLN A   4       7.809   0.814  23.496  0.00  0.00    -0.302 N 
ATOM      5  H   GLN A   4       8.076   0.121  24.195  0.00  0.00    +0.150 HD
BRANCH   4   6
ATOM      6  CA  GLN A   4       8.791   1.094  22.449  0.00  0.00    +0.159 C 
BRANCH   6   7
ATOM      7  C   GLN A   4       8.356   0.255  21.230  0.00  0.00    +0.234 C 
ATOM      8  O   GLN A   4       8.924  -0.794  20.926  0.00  0.00    -0.274 OA
ATOM      9  N   SER A   5       7.318   0.762  20.497  0.00  0.00    -0.302 N 
ATOM     10  H   SER A   5       6.882   1.649  20.735  0.00  0.00    +0.150 HD
BRANCH   9  11
ATOM     11  CA  SER A   5       6.870   0.143  19.245  0.00  0.00    +0.161 C 
BRANCH  11  12
ATOM     12  CB  SER A   5       6.297   1.249  18.373  0.00  0.00    +0.247 C 
ATOM     13  OG  SER A   5       6.291   1.186  17.142  0.00  0.00    -0.299 OA
ENDBRANCH  11  12
BRANCH  11  14
ATOM     14  C   SER A   5       5.828  -0.958  19.454  0.00  0.00    +0.185 C 
BRANCH  14  15
ATOM     15  O   SER A   5       5.579  -1.661  18.239  0.00  0.00    -0.393 OA
ATOM     16  H   SER A   5       5.947  -2.557  18.348  0.00  0.00    +0.209 HD
ENDBRANCH  14  15
ENDBRANCH  11  14
ENDBRANCH   9  11
ENDBRANCH   6   7
BRANCH   6  17
ATOM     17  CB  GLN A   4      10.207   0.727  22.924  0.00  0.00    +0.041 C 
BRANCH  17  18
ATOM     18  CG  GLN A   4      10.225   0.030  24.283  0.00  0.00    +0.098 C 
BRANCH  18  19
ATOM     19  CD  GLN A   4       9.717  -1.396  24.150  0.00  0.00    +0.211 C 
ATOM     20  OE1 GLN A   4       8.750  -1.836  24.771  0.00  0.00    -0.276 OA
ATOM     21  NE2 GLN A   4      10.375  -2.151  23.225  0.00  0.00    -0.329 N 
ATOM     22 HE21 GLN A   4      11.252  -1.858  22.810  0.00  0.00    +0.145 HD
ATOM     23 HE22 GLN A   4      10.124  -3.124  23.117  0.00  0.00    +0.145 HD
ENDBRANCH  18  19
ENDBRANCH  17  18
ENDBRANCH   6  17
ENDBRANCH   4   6
ENDBRANCH   1   2
BRANCH   1  26
ATOM     24  C   LYS A   2       5.084  -1.222  25.651  0.00  0.00    +0.234 C 
ATOM     25  O   LYS A   2       4.092  -0.810  26.249  0.00  0.00    -0.274 OA
ATOM     26  N   LEU A   3       5.957  -0.401  24.975  0.00  0.00    -0.302 N 
ATOM     27  H   LEU A   3       6.691  -0.815  24.410  0.00  0.00    +0.150 HD
BRANCH  24  28
ATOM     28  CA  LYS A   2       5.413  -2.722  25.549  0.00  0.00    +0.159 C 
BRANCH  28  30
ATOM     29  C   THR A   1       5.425  -3.739  23.296  0.00  0.00    +0.233 C 
ATOM     30  N   LYS A   2       6.022  -2.935  24.245  0.00  0.00    -0.303 N 
ATOM     31  H   LYS A   2       6.826  -2.362  24.006  0.00  0.00    +0.149 HD
ATOM     32  O   THR A   1       4.403  -4.375  23.541  0.00  0.00    -0.274 OA
BRANCH  29  33
ATOM     33  CA  THR A   1       6.124  -3.717  21.926  0.00  0.00    +0.166 C 
BRANCH  33  34
ATOM     34  N   THR A   1       7.388  -2.952  22.016  0.00  0.00    -0.318 NA
ATOM     35  H1  THR A   1       7.531  -2.503  21.108  0.00  0.00    +0.119 HD
ATOM     36  H2  THR A   1       7.292  -2.210  22.704  0.00  0.00    +0.119 HD
ENDBRANCH  33  34
BRANCH  33  37
ATOM     37  CB  THR A   1       6.395  -5.158  21.441  0.00  0.00    +0.137 C 
ATOM     38  CG2 THR A   1       7.397  -5.900  22.320  0.00  0.00    +0.040 C 
BRANCH  37  39
ATOM     39  OG1 THR A   1       5.156  -5.887  21.482  0.00  0.00    -0.390 OA
ATOM     40  HG1 THR A   1       4.465  -5.258  21.757  0.00  0.00    +0.210 HD
ENDBRANCH  37  39
ENDBRANCH  33  37
ENDBRANCH  29  33
ENDBRANCH  28  30
BRANCH  28  41
ATOM     41  CB  LYS A   2       6.371  -3.151  26.672  0.00  0.00    +0.032 C 
BRANCH  41  42
ATOM     42  CG  LYS A   2       6.542  -4.669  26.738  0.00  0.00    +0.007 C 
BRANCH  42  43
ATOM     43  CD  LYS A   2       7.996  -5.114  26.909  0.00  0.00    +0.051 C 
BRANCH  43  44
ATOM     44  CE  LYS A   2       8.653  -5.190  25.539  0.00  0.00    +0.127 C 
BRANCH  44  45
ATOM     45  NZ  LYS A   2      10.080  -5.545  25.668  0.00  0.00    +0.219 N 
ATOM     46  HZ1 LYS A   2      10.553  -5.624  24.761  0.00  0.00    +0.199 HD
ATOM     47  HZ2 LYS A   2      10.142  -6.456  26.157  0.00  0.00    +0.199 HD
ATOM     48  HZ3 LYS A   2      10.591  -4.873  26.253  0.00  0.00    +0.199 HD
ENDBRANCH  44  45
ENDBRANCH  43  44
ENDBRANCH  42  43
ENDBRANCH  41  42
ENDBRANCH  28  41
ENDBRANCH  24  28
ENDBRANCH   1  26
BRANCH   1  49
ATOM     49  CB  LEU A   3       5.988   1.843  26.003  0.00  0.00    +0.034 C 
BRANCH  49  50
ATOM     50  CG  LEU A   3       4.810   2.723  26.471  0.00  0.00    -0.015 C 
ATOM     51  CD2 LEU A   3       3.671   2.655  25.450  0.00  0.00    +0.007 C 
ATOM     52  CD1 LEU A   3       4.287   2.306  27.847  0.00  0.00    +0.007 C 
ENDBRANCH  49  50
ENDBRANCH   1  49
TORSDOF 24
ENDMDL
MODEL 15
REMARK VINA RESULT:      -5.8      2.085      8.205
REMARK  Name = TKLQS-mmff94.pdb
REMARK  27 active torsions:
REMARK  status: ('A' for Active; 'I' for Inactive)
REMARK    1  A    between atoms: _1  and  _2
REMARK    2  A    between atoms: _2  and  _3
REMARK    3  A    between atoms: _2  and  _5
REMARK    4  A    between atoms: _5  and  _6
REMARK    5  A    between atoms: _5  and  _7
REMARK    6  A    between atoms: _15  and  _16
REMARK    7  A    between atoms: _16  and  _17
REMARK    8  A    between atoms: _16  and  _19
REMARK    9  A    between atoms: _19  and  _20
REMARK   10  A    between atoms: _20  and  _21
REMARK   11  A    between atoms: _21  and  _22
REMARK   12  A    between atoms: _22  and  _23
REMARK   13  A    between atoms: _37  and  _38
REMARK   14  A    between atoms: _38  and  _39
REMARK   15  A    between atoms: _38  and  _41
REMARK   16  A    between atoms: _41  and  _42
REMARK   17  A    between atoms: _42  and  _43
REMARK   18  A    between atoms: _42  and  _44
REMARK   19  A    between atoms: _56  and  _57
REMARK   20  A    between atoms: _57  and  _58
REMARK   21  A    between atoms: _57  and  _60
REMARK   22  A    between atoms: _60  and  _61
REMARK   23  A    between atoms: _61  and  _62
REMARK   24  A    between atoms: _73  and  _74
REMARK   25  A    between atoms: _74  and  _75
REMARK   26  A    between atoms: _74  and  _77
REMARK   27  A    between atoms: _77  and  _78
REMARK                            x       y       z     vdW  Elec       q    Type
REMARK                         _______ _______ _______ _____ _____    ______ ____
ROOT
ATOM      1  CA  LEU A   3       9.316  -0.238  25.508  0.00  0.00    +0.159 C 
ENDROOT
BRANCH   1   2
ATOM      2  C   LEU A   3       9.605  -1.474  24.626  0.00  0.00    +0.234 C 
ATOM      3  O   LEU A   3      10.376  -1.444  23.663  0.00  0.00    -0.274 OA
ATOM      4  N   GLN A   4       8.962  -2.625  25.006  0.00  0.00    -0.302 N 
ATOM      5  H   GLN A   4       8.353  -2.636  25.824  0.00  0.00    +0.150 HD
BRANCH   4   6
ATOM      6  CA  GLN A   4       9.116  -3.892  24.292  0.00  0.00    +0.159 C 
BRANCH   6   7
ATOM      7  C   GLN A   4       7.852  -4.039  23.421  0.00  0.00    +0.234 C 
ATOM      8  O   GLN A   4       7.649  -3.320  22.443  0.00  0.00    -0.274 OA
ATOM      9  N   SER A   5       6.965  -5.003  23.815  0.00  0.00    -0.302 N 
ATOM     10  H   SER A   5       7.125  -5.565  24.647  0.00  0.00    +0.150 HD
BRANCH   9  11
ATOM     11  CA  SER A   5       5.665  -5.182  23.160  0.00  0.00    +0.161 C 
BRANCH  11  12
ATOM     12  CB  SER A   5       4.739  -5.846  24.168  0.00  0.00    +0.247 C 
ATOM     13  OG  SER A   5       5.161  -6.508  25.119  0.00  0.00    -0.299 OA
ENDBRANCH  11  12
BRANCH  11  14
ATOM     14  C   SER A   5       5.743  -6.020  21.882  0.00  0.00    +0.185 C 
BRANCH  14  15
ATOM     15  O   SER A   5       5.934  -5.189  20.739  0.00  0.00    -0.393 OA
ATOM     16  H   SER A   5       6.880  -5.232  20.511  0.00  0.00    +0.209 HD
ENDBRANCH  14  15
ENDBRANCH  11  14
ENDBRANCH   9  11
ENDBRANCH   6   7
BRANCH   6  17
ATOM     17  CB  GLN A   4       9.269  -5.057  25.285  0.00  0.00    +0.041 C 
BRANCH  17  18
ATOM     18  CG  GLN A   4       8.992  -4.656  26.733  0.00  0.00    +0.098 C 
BRANCH  18  19
ATOM     19  CD  GLN A   4       7.529  -4.884  27.072  0.00  0.00    +0.211 C 
ATOM     20  OE1 GLN A   4       6.647  -4.046  26.886  0.00  0.00    -0.276 OA
ATOM     21  NE2 GLN A   4       7.241  -6.131  27.541  0.00  0.00    -0.329 N 
ATOM     22 HE21 GLN A   4       7.963  -6.782  27.832  0.00  0.00    +0.145 HD
ATOM     23 HE22 GLN A   4       6.296  -6.340  27.834  0.00  0.00    +0.145 HD
ENDBRANCH  18  19
ENDBRANCH  17  18
ENDBRANCH   6  17
ENDBRANCH   4   6
ENDBRANCH   1   2
BRANCH   1  26
ATOM     24  C   LYS A   2       9.379   1.741  23.999  0.00  0.00    +0.234 C 
ATOM     25  O   LYS A   2      10.567   1.977  24.209  0.00  0.00    -0.274 OA
ATOM     26  N   LEU A   3       8.677   0.751  24.645  0.00  0.00    -0.302 N 
ATOM     27  H   LEU A   3       7.732   0.535  24.345  0.00  0.00    +0.150 HD
BRANCH  24  28
ATOM     28  CA  LYS A   2       8.570   2.502  22.933  0.00  0.00    +0.159 C 
BRANCH  28  30
ATOM     29  C   THR A   1       8.363   0.600  21.368  0.00  0.00    +0.233 C 
ATOM     30  N   LYS A   2       7.776   1.515  22.218  0.00  0.00    -0.303 N 
ATOM     31  H   LYS A   2       6.797   1.430  22.473  0.00  0.00    +0.149 HD
ATOM     32  O   THR A   1       9.564   0.636  21.113  0.00  0.00    -0.274 OA
BRANCH  29  33
ATOM     33  CA  THR A   1       7.394  -0.466  20.828  0.00  0.00    +0.166 C 
BRANCH  33  34
ATOM     34  N   THR A   1       6.340  -0.743  21.829  0.00  0.00    -0.318 NA
ATOM     35  H1  THR A   1       6.550  -0.171  22.650  0.00  0.00    +0.119 HD
ATOM     36  H2  THR A   1       5.438  -0.436  21.473  0.00  0.00    +0.119 HD
ENDBRANCH  33  34
BRANCH  33  37
ATOM     37  CB  THR A   1       6.769   0.004  19.497  0.00  0.00    +0.137 C 
ATOM     38  CG2 THR A   1       5.931   1.271  19.651  0.00  0.00    +0.040 C 
BRANCH  37  39
ATOM     39  OG1 THR A   1       7.835   0.297  18.578  0.00  0.00    -0.390 OA
ATOM     40  HG1 THR A   1       7.429   0.704  17.791  0.00  0.00    +0.210 HD
ENDBRANCH  37  39
ENDBRANCH  33  37
ENDBRANCH  29  33
ENDBRANCH  28  30
BRANCH  28  41
ATOM     41  CB  LYS A   2       7.664   3.560  23.584  0.00  0.00    +0.032 C 
BRANCH  41  42
ATOM     42  CG  LYS A   2       8.202   4.978  23.396  0.00  0.00    +0.007 C 
BRANCH  42  43
ATOM     43  CD  LYS A   2       9.354   5.325  24.341  0.00  0.00    +0.051 C 
BRANCH  43  44
ATOM     44  CE  LYS A   2      10.520   5.859  23.522  0.00  0.00    +0.127 C 
BRANCH  44  45
ATOM     45  NZ  LYS A   2      11.463   4.771  23.195  0.00  0.00    +0.219 N 
ATOM     46  HZ1 LYS A   2      11.073   4.095  22.530  0.00  0.00    +0.199 HD
ATOM     47  HZ2 LYS A   2      11.700   4.276  24.074  0.00  0.00    +0.199 HD
ATOM     48  HZ3 LYS A   2      12.350   5.131  22.823  0.00  0.00    +0.199 HD
ENDBRANCH  44  45
ENDBRANCH  43  44
ENDBRANCH  42  43
ENDBRANCH  41  42
ENDBRANCH  28  41
ENDBRANCH  24  28
ENDBRANCH   1  26
BRANCH   1  49
ATOM     49  CB  LEU A   3       8.414  -0.598  26.696  0.00  0.00    +0.034 C 
BRANCH  49  50
ATOM     50  CG  LEU A   3       7.150   0.279  26.819  0.00  0.00    -0.015 C 
ATOM     51  CD2 LEU A   3       5.898  -0.585  26.647  0.00  0.00    +0.007 C 
ATOM     52  CD1 LEU A   3       7.084   1.013  28.160  0.00  0.00    +0.007 C 
ENDBRANCH  49  50
ENDBRANCH   1  49
TORSDOF 24
ENDMDL
MODEL 16
REMARK VINA RESULT:      -5.8      2.246      7.941
REMARK  Name = TKLQS-mmff94.pdb
REMARK  27 active torsions:
REMARK  status: ('A' for Active; 'I' for Inactive)
REMARK    1  A    between atoms: _1  and  _2
REMARK    2  A    between atoms: _2  and  _3
REMARK    3  A    between atoms: _2  and  _5
REMARK    4  A    between atoms: _5  and  _6
REMARK    5  A    between atoms: _5  and  _7
REMARK    6  A    between atoms: _15  and  _16
REMARK    7  A    between atoms: _16  and  _17
REMARK    8  A    between atoms: _16  and  _19
REMARK    9  A    between atoms: _19  and  _20
REMARK   10  A    between atoms: _20  and  _21
REMARK   11  A    between atoms: _21  and  _22
REMARK   12  A    between atoms: _22  and  _23
REMARK   13  A    between atoms: _37  and  _38
REMARK   14  A    between atoms: _38  and  _39
REMARK   15  A    between atoms: _38  and  _41
REMARK   16  A    between atoms: _41  and  _42
REMARK   17  A    between atoms: _42  and  _43
REMARK   18  A    between atoms: _42  and  _44
REMARK   19  A    between atoms: _56  and  _57
REMARK   20  A    between atoms: _57  and  _58
REMARK   21  A    between atoms: _57  and  _60
REMARK   22  A    between atoms: _60  and  _61
REMARK   23  A    between atoms: _61  and  _62
REMARK   24  A    between atoms: _73  and  _74
REMARK   25  A    between atoms: _74  and  _75
REMARK   26  A    between atoms: _74  and  _77
REMARK   27  A    between atoms: _77  and  _78
REMARK                            x       y       z     vdW  Elec       q    Type
REMARK                         _______ _______ _______ _____ _____    ______ ____
ROOT
ATOM      1  CA  LEU A   3       8.657  -0.892  24.252  0.00  0.00    +0.159 C 
ENDROOT
BRANCH   1   2
ATOM      2  C   LEU A   3       9.198  -2.288  23.864  0.00  0.00    +0.234 C 
ATOM      3  O   LEU A   3      10.273  -2.450  23.281  0.00  0.00    -0.274 OA
ATOM      4  N   GLN A   4       8.408  -3.345  24.240  0.00  0.00    -0.302 N 
ATOM      5  H   GLN A   4       7.538  -3.190  24.749  0.00  0.00    +0.150 HD
BRANCH   4   6
ATOM      6  CA  GLN A   4       8.760  -4.736  23.960  0.00  0.00    +0.159 C 
BRANCH   6   7
ATOM      7  C   GLN A   4       7.511  -5.362  23.307  0.00  0.00    +0.234 C 
ATOM      8  O   GLN A   4       7.501  -5.715  22.128  0.00  0.00    -0.274 OA
ATOM      9  N   SER A   5       6.412  -5.479  24.113  0.00  0.00    -0.302 N 
ATOM     10  H   SER A   5       6.419  -5.148  25.074  0.00  0.00    +0.150 HD
BRANCH   9  11
ATOM     11  CA  SER A   5       5.117  -5.943  23.604  0.00  0.00    +0.161 C 
BRANCH  11  12
ATOM     12  CB  SER A   5       4.238  -4.716  23.417  0.00  0.00    +0.247 C 
ATOM     13  OG  SER A   5       3.058  -4.793  23.069  0.00  0.00    -0.299 OA
ENDBRANCH  11  12
BRANCH  11  14
ATOM     14  C   SER A   5       4.428  -6.948  24.531  0.00  0.00    +0.185 C 
BRANCH  14  15
ATOM     15  O   SER A   5       3.466  -7.723  23.818  0.00  0.00    -0.393 OA
ATOM     16  H   SER A   5       2.747  -7.927  24.442  0.00  0.00    +0.209 HD
ENDBRANCH  14  15
ENDBRANCH  11  14
ENDBRANCH   9  11
ENDBRANCH   6   7
BRANCH   6  17
ATOM     17  CB  GLN A   4       9.157  -5.465  25.255  0.00  0.00    +0.041 C 
BRANCH  17  18
ATOM     18  CG  GLN A   4       8.932  -4.626  26.512  0.00  0.00    +0.098 C 
BRANCH  18  19
ATOM     19  CD  GLN A   4       7.540  -4.875  27.068  0.00  0.00    +0.211 C 
ATOM     20  OE1 GLN A   4       6.598  -4.096  26.923  0.00  0.00    -0.276 OA
ATOM     21  NE2 GLN A   4       7.382  -6.077  27.691  0.00  0.00    -0.329 N 
ATOM     22 HE21 GLN A   4       8.169  -6.666  27.942  0.00  0.00    +0.145 HD
ATOM     23 HE22 GLN A   4       6.496  -6.292  28.128  0.00  0.00    +0.145 HD
ENDBRANCH  18  19
ENDBRANCH  17  18
ENDBRANCH   6  17
ENDBRANCH   4   6
ENDBRANCH   1   2
BRANCH   1  26
ATOM     24  C   LYS A   2       7.425  -0.508  22.122  0.00  0.00    +0.234 C 
ATOM     25  O   LYS A   2       6.743  -1.525  22.228  0.00  0.00    -0.274 OA
ATOM     26  N   LEU A   3       8.427  -0.172  23.003  0.00  0.00    -0.302 N 
ATOM     27  H   LEU A   3       8.875   0.735  22.924  0.00  0.00    +0.150 HD
BRANCH  24  28
ATOM     28  CA  LYS A   2       7.178   0.531  21.014  0.00  0.00    +0.159 C 
BRANCH  28  30
ATOM     29  C   THR A   1       6.823   2.809  21.907  0.00  0.00    +0.233 C 
ATOM     30  N   LYS A   2       7.681   1.804  21.507  0.00  0.00    -0.303 N 
ATOM     31  H   LYS A   2       8.679   1.878  21.680  0.00  0.00    +0.149 HD
ATOM     32  O   THR A   1       5.606   2.704  21.783  0.00  0.00    -0.274 OA
BRANCH  29  33
ATOM     33  CA  THR A   1       7.527   4.017  22.549  0.00  0.00    +0.166 C 
BRANCH  33  34
ATOM     34  N   THR A   1       6.575   4.760  23.404  0.00  0.00    -0.318 NA
ATOM     35  H1  THR A   1       6.212   4.097  24.094  0.00  0.00    +0.119 HD
ATOM     36  H2  THR A   1       7.068   5.486  23.918  0.00  0.00    +0.119 HD
ENDBRANCH  33  34
BRANCH  33  37
ATOM     37  CB  THR A   1       8.746   3.550  23.374  0.00  0.00    +0.137 C 
ATOM     38  CG2 THR A   1       9.433   4.693  24.116  0.00  0.00    +0.040 C 
BRANCH  37  39
ATOM     39  OG1 THR A   1       8.289   2.606  24.357  0.00  0.00    -0.390 OA
ATOM     40  HG1 THR A   1       9.032   2.004  24.541  0.00  0.00    +0.210 HD
ENDBRANCH  37  39
ENDBRANCH  33  37
ENDBRANCH  29  33
ENDBRANCH  28  30
BRANCH  28  41
ATOM     41  CB  LYS A   2       7.897   0.130  19.715  0.00  0.00    +0.032 C 
BRANCH  41  42
ATOM     42  CG  LYS A   2       6.917  -0.192  18.588  0.00  0.00    +0.007 C 
BRANCH  42  43
ATOM     43  CD  LYS A   2       5.454   0.062  18.958  0.00  0.00    +0.051 C 
BRANCH  43  44
ATOM     44  CE  LYS A   2       5.079   1.476  18.541  0.00  0.00    +0.127 C 
BRANCH  44  45
ATOM     45  NZ  LYS A   2       3.974   1.986  19.377  0.00  0.00    +0.219 N 
ATOM     46  HZ1 LYS A   2       3.075   1.545  19.158  0.00  0.00    +0.199 HD
ATOM     47  HZ2 LYS A   2       3.893   3.006  19.215  0.00  0.00    +0.199 HD
ATOM     48  HZ3 LYS A   2       4.166   1.872  20.379  0.00  0.00    +0.199 HD
ENDBRANCH  44  45
ENDBRANCH  43  44
ENDBRANCH  42  43
ENDBRANCH  41  42
ENDBRANCH  28  41
ENDBRANCH  24  28
ENDBRANCH   1  26
BRANCH   1  49
ATOM     49  CB  LEU A   3       7.364  -1.003  25.070  0.00  0.00    +0.034 C 
BRANCH  49  50
ATOM     50  CG  LEU A   3       7.430  -0.318  26.452  0.00  0.00    -0.015 C 
ATOM     51  CD2 LEU A   3       6.161  -0.632  27.250  0.00  0.00    +0.007 C 
ATOM     52  CD1 LEU A   3       8.657  -0.752  27.255  0.00  0.00    +0.007 C 
ENDBRANCH  49  50
ENDBRANCH   1  49
TORSDOF 24
ENDMDL
MODEL 17
REMARK VINA RESULT:      -5.8      2.008      4.210
REMARK  Name = TKLQS-mmff94.pdb
REMARK  27 active torsions:
REMARK  status: ('A' for Active; 'I' for Inactive)
REMARK    1  A    between atoms: _1  and  _2
REMARK    2  A    between atoms: _2  and  _3
REMARK    3  A    between atoms: _2  and  _5
REMARK    4  A    between atoms: _5  and  _6
REMARK    5  A    between atoms: _5  and  _7
REMARK    6  A    between atoms: _15  and  _16
REMARK    7  A    between atoms: _16  and  _17
REMARK    8  A    between atoms: _16  and  _19
REMARK    9  A    between atoms: _19  and  _20
REMARK   10  A    between atoms: _20  and  _21
REMARK   11  A    between atoms: _21  and  _22
REMARK   12  A    between atoms: _22  and  _23
REMARK   13  A    between atoms: _37  and  _38
REMARK   14  A    between atoms: _38  and  _39
REMARK   15  A    between atoms: _38  and  _41
REMARK   16  A    between atoms: _41  and  _42
REMARK   17  A    between atoms: _42  and  _43
REMARK   18  A    between atoms: _42  and  _44
REMARK   19  A    between atoms: _56  and  _57
REMARK   20  A    between atoms: _57  and  _58
REMARK   21  A    between atoms: _57  and  _60
REMARK   22  A    between atoms: _60  and  _61
REMARK   23  A    between atoms: _61  and  _62
REMARK   24  A    between atoms: _73  and  _74
REMARK   25  A    between atoms: _74  and  _75
REMARK   26  A    between atoms: _74  and  _77
REMARK   27  A    between atoms: _77  and  _78
REMARK                            x       y       z     vdW  Elec       q    Type
REMARK                         _______ _______ _______ _____ _____    ______ ____
ROOT
ATOM      1  CA  LEU A   3       7.494  -3.202  22.491  0.00  0.00    +0.159 C 
ENDROOT
BRANCH   1   2
ATOM      2  C   LEU A   3       8.269  -2.033  21.839  0.00  0.00    +0.234 C 
ATOM      3  O   LEU A   3       9.494  -2.042  21.693  0.00  0.00    -0.274 OA
ATOM      4  N   GLN A   4       7.492  -0.989  21.404  0.00  0.00    -0.302 N 
ATOM      5  H   GLN A   4       6.478  -1.016  21.507  0.00  0.00    +0.150 HD
BRANCH   4   6
ATOM      6  CA  GLN A   4       8.050   0.200  20.762  0.00  0.00    +0.159 C 
BRANCH   6   7
ATOM      7  C   GLN A   4       7.619   1.393  21.639  0.00  0.00    +0.234 C 
ATOM      8  O   GLN A   4       8.265   2.440  21.676  0.00  0.00    -0.274 OA
ATOM      9  N   SER A   5       6.489   1.205  22.387  0.00  0.00    -0.302 N 
ATOM     10  H   SER A   5       5.986   0.323  22.378  0.00  0.00    +0.150 HD
BRANCH   9  11
ATOM     11  CA  SER A   5       6.021   2.201  23.357  0.00  0.00    +0.161 C 
BRANCH  11  12
ATOM     12  CB  SER A   5       5.611   1.448  24.614  0.00  0.00    +0.247 C 
ATOM     13  OG  SER A   5       5.310   0.252  24.602  0.00  0.00    -0.299 OA
ENDBRANCH  11  12
BRANCH  11  14
ATOM     14  C   SER A   5       4.852   3.044  22.843  0.00  0.00    +0.185 C 
BRANCH  14  15
ATOM     15  O   SER A   5       3.620   2.609  23.414  0.00  0.00    -0.393 OA
ATOM     16  H   SER A   5       3.394   3.243  24.119  0.00  0.00    +0.209 HD
ENDBRANCH  14  15
ENDBRANCH  11  14
ENDBRANCH   9  11
ENDBRANCH   6   7
BRANCH   6  17
ATOM     17  CB  GLN A   4       7.532   0.330  19.320  0.00  0.00    +0.041 C 
BRANCH  17  18
ATOM     18  CG  GLN A   4       6.056  -0.037  19.174  0.00  0.00    +0.098 C 
BRANCH  18  19
ATOM     19  CD  GLN A   4       5.259   1.165  18.698  0.00  0.00    +0.211 C 
ATOM     20  OE1 GLN A   4       4.357   1.688  19.353  0.00  0.00    -0.276 OA
ATOM     21  NE2 GLN A   4       5.664   1.680  17.503  0.00  0.00    -0.329 N 
ATOM     22 HE21 GLN A   4       6.303   1.187  16.888  0.00  0.00    +0.145 HD
ATOM     23 HE22 GLN A   4       5.149   2.450  17.099  0.00  0.00    +0.145 HD
ENDBRANCH  18  19
ENDBRANCH  17  18
ENDBRANCH   6  17
ENDBRANCH   4   6
ENDBRANCH   1   2
BRANCH   1  26
ATOM     24  C   LYS A   2       7.475  -3.528  24.959  0.00  0.00    +0.234 C 
ATOM     25  O   LYS A   2       7.911  -4.677  24.902  0.00  0.00    -0.274 OA
ATOM     26  N   LEU A   3       7.165  -2.778  23.849  0.00  0.00    -0.302 N 
ATOM     27  H   LEU A   3       6.918  -1.801  23.962  0.00  0.00    +0.150 HD
BRANCH  24  28
ATOM     28  CA  LYS A   2       7.293  -2.788  26.297  0.00  0.00    +0.159 C 
BRANCH  28  30
ATOM     29  C   THR A   1       5.571  -4.049  27.543  0.00  0.00    +0.233 C 
ATOM     30  N   LYS A   2       6.899  -3.784  27.281  0.00  0.00    -0.303 N 
ATOM     31  H   LYS A   2       7.630  -4.375  27.666  0.00  0.00    +0.149 HD
ATOM     32  O   THR A   1       4.669  -3.398  27.022  0.00  0.00    -0.274 OA
BRANCH  29  33
ATOM     33  CA  THR A   1       5.343  -5.241  28.490  0.00  0.00    +0.166 C 
BRANCH  33  34
ATOM     34  N   THR A   1       4.190  -4.967  29.377  0.00  0.00    -0.318 NA
ATOM     35  H1  THR A   1       3.988  -5.835  29.881  0.00  0.00    +0.119 HD
ATOM     36  H2  THR A   1       4.447  -4.271  30.072  0.00  0.00    +0.119 HD
ENDBRANCH  33  34
BRANCH  33  37
ATOM     37  CB  THR A   1       5.110  -6.533  27.679  0.00  0.00    +0.137 C 
ATOM     38  CG2 THR A   1       3.638  -6.770  27.353  0.00  0.00    +0.040 C 
BRANCH  37  39
ATOM     39  OG1 THR A   1       5.817  -6.415  26.433  0.00  0.00    -0.390 OA
ATOM     40  HG1 THR A   1       6.766  -6.370  26.648  0.00  0.00    +0.210 HD
ENDBRANCH  37  39
ENDBRANCH  33  37
ENDBRANCH  29  33
ENDBRANCH  28  30
BRANCH  28  41
ATOM     41  CB  LYS A   2       8.596  -2.091  26.720  0.00  0.00    +0.032 C 
BRANCH  41  42
ATOM     42  CG  LYS A   2       8.474  -0.568  26.687  0.00  0.00    +0.007 C 
BRANCH  42  43
ATOM     43  CD  LYS A   2       8.754   0.038  25.310  0.00  0.00    +0.051 C 
BRANCH  43  44
ATOM     44  CE  LYS A   2      10.084  -0.496  24.798  0.00  0.00    +0.127 C 
BRANCH  44  45
ATOM     45  NZ  LYS A   2      10.506   0.239  23.589  0.00  0.00    +0.219 N 
ATOM     46  HZ1 LYS A   2       9.841   0.972  23.319  0.00  0.00    +0.199 HD
ATOM     47  HZ2 LYS A   2      10.586  -0.441  22.812  0.00  0.00    +0.199 HD
ATOM     48  HZ3 LYS A   2      11.436   0.657  23.699  0.00  0.00    +0.199 HD
ENDBRANCH  44  45
ENDBRANCH  43  44
ENDBRANCH  42  43
ENDBRANCH  41  42
ENDBRANCH  28  41
ENDBRANCH  24  28
ENDBRANCH   1  26
BRANCH   1  49
ATOM     49  CB  LEU A   3       6.226  -3.542  21.698  0.00  0.00    +0.034 C 
BRANCH  49  50
ATOM     50  CG  LEU A   3       5.893  -5.049  21.654  0.00  0.00    -0.015 C 
ATOM     51  CD2 LEU A   3       7.185  -5.869  21.715  0.00  0.00    +0.007 C 
ATOM     52  CD1 LEU A   3       4.967  -5.470  22.797  0.00  0.00    +0.007 C 
ENDBRANCH  49  50
ENDBRANCH   1  49
TORSDOF 24
ENDMDL
MODEL 18
REMARK VINA RESULT:      -5.8      2.086      8.306
REMARK  Name = TKLQS-mmff94.pdb
REMARK  27 active torsions:
REMARK  status: ('A' for Active; 'I' for Inactive)
REMARK    1  A    between atoms: _1  and  _2
REMARK    2  A    between atoms: _2  and  _3
REMARK    3  A    between atoms: _2  and  _5
REMARK    4  A    between atoms: _5  and  _6
REMARK    5  A    between atoms: _5  and  _7
REMARK    6  A    between atoms: _15  and  _16
REMARK    7  A    between atoms: _16  and  _17
REMARK    8  A    between atoms: _16  and  _19
REMARK    9  A    between atoms: _19  and  _20
REMARK   10  A    between atoms: _20  and  _21
REMARK   11  A    between atoms: _21  and  _22
REMARK   12  A    between atoms: _22  and  _23
REMARK   13  A    between atoms: _37  and  _38
REMARK   14  A    between atoms: _38  and  _39
REMARK   15  A    between atoms: _38  and  _41
REMARK   16  A    between atoms: _41  and  _42
REMARK   17  A    between atoms: _42  and  _43
REMARK   18  A    between atoms: _42  and  _44
REMARK   19  A    between atoms: _56  and  _57
REMARK   20  A    between atoms: _57  and  _58
REMARK   21  A    between atoms: _57  and  _60
REMARK   22  A    between atoms: _60  and  _61
REMARK   23  A    between atoms: _61  and  _62
REMARK   24  A    between atoms: _73  and  _74
REMARK   25  A    between atoms: _74  and  _75
REMARK   26  A    between atoms: _74  and  _77
REMARK   27  A    between atoms: _77  and  _78
REMARK                            x       y       z     vdW  Elec       q    Type
REMARK                         _______ _______ _______ _____ _____    ______ ____
ROOT
ATOM      1  CA  LEU A   3       6.925  -0.604  26.378  0.00  0.00    +0.159 C 
ENDROOT
BRANCH   1   2
ATOM      2  C   LEU A   3       7.685  -1.947  26.469  0.00  0.00    +0.234 C 
ATOM      3  O   LEU A   3       8.881  -2.021  26.766  0.00  0.00    -0.274 OA
ATOM      4  N   GLN A   4       6.927  -3.064  26.222  0.00  0.00    -0.302 N 
ATOM      5  H   GLN A   4       5.933  -2.982  26.008  0.00  0.00    +0.150 HD
BRANCH   4   6
ATOM      6  CA  GLN A   4       7.475  -4.419  26.264  0.00  0.00    +0.159 C 
BRANCH   6   7
ATOM      7  C   GLN A   4       7.914  -4.740  24.821  0.00  0.00    +0.234 C 
ATOM      8  O   GLN A   4       9.099  -4.862  24.514  0.00  0.00    -0.274 OA
ATOM      9  N   SER A   5       6.906  -4.859  23.904  0.00  0.00    -0.302 N 
ATOM     10  H   SER A   5       5.933  -4.718  24.161  0.00  0.00    +0.150 HD
BRANCH   9  11
ATOM     11  CA  SER A   5       7.171  -5.043  22.473  0.00  0.00    +0.161 C 
BRANCH  11  12
ATOM     12  CB  SER A   5       6.362  -3.995  21.725  0.00  0.00    +0.247 C 
ATOM     13  OG  SER A   5       5.167  -3.792  21.953  0.00  0.00    -0.299 OA
ENDBRANCH  11  12
BRANCH  11  14
ATOM     14  C   SER A   5       6.815  -6.444  21.968  0.00  0.00    +0.185 C 
BRANCH  14  15
ATOM     15  O   SER A   5       5.583  -6.428  21.249  0.00  0.00    -0.393 OA
ATOM     16  H   SER A   5       4.893  -6.141  21.873  0.00  0.00    +0.209 HD
ENDBRANCH  14  15
ENDBRANCH  11  14
ENDBRANCH   9  11
ENDBRANCH   6   7
BRANCH   6  17
ATOM     17  CB  GLN A   4       6.420  -5.413  26.779  0.00  0.00    +0.041 C 
BRANCH  17  18
ATOM     18  CG  GLN A   4       6.019  -5.168  28.233  0.00  0.00    +0.098 C 
BRANCH  18  19
ATOM     19  CD  GLN A   4       5.994  -6.479  29.000  0.00  0.00    +0.211 C 
ATOM     20  OE1 GLN A   4       6.458  -6.617  30.132  0.00  0.00    -0.276 OA
ATOM     21  NE2 GLN A   4       5.346  -7.498  28.366  0.00  0.00    -0.329 N 
ATOM     22 HE21 GLN A   4       5.084  -7.448  27.388  0.00  0.00    +0.145 HD
ATOM     23 HE22 GLN A   4       5.331  -8.413  28.794  0.00  0.00    +0.145 HD
ENDBRANCH  18  19
ENDBRANCH  17  18
ENDBRANCH   6  17
ENDBRANCH   4   6
ENDBRANCH   1   2
BRANCH   1  26
ATOM     24  C   LYS A   2       6.920  -0.341  23.902  0.00  0.00    +0.234 C 
ATOM     25  O   LYS A   2       6.242  -1.348  23.706  0.00  0.00    -0.274 OA
ATOM     26  N   LEU A   3       7.366   0.043  25.145  0.00  0.00    -0.302 N 
ATOM     27  H   LEU A   3       7.824   0.941  25.253  0.00  0.00    +0.150 HD
BRANCH  24  28
ATOM     28  CA  LYS A   2       7.287   0.632  22.767  0.00  0.00    +0.159 C 
BRANCH  28  30
ATOM     29  C   THR A   1       7.273  -0.082  20.401  0.00  0.00    +0.233 C 
ATOM     30  N   LYS A   2       6.593   0.173  21.574  0.00  0.00    -0.303 N 
ATOM     31  H   LYS A   2       5.616  -0.089  21.673  0.00  0.00    +0.149 HD
ATOM     32  O   THR A   1       8.474   0.150  20.289  0.00  0.00    -0.274 OA
BRANCH  29  33
ATOM     33  CA  THR A   1       6.406  -0.713  19.297  0.00  0.00    +0.166 C 
BRANCH  33  34
ATOM     34  N   THR A   1       5.197  -1.325  19.893  0.00  0.00    -0.318 NA
ATOM     35  H1  THR A   1       4.415  -1.111  19.270  0.00  0.00    +0.119 HD
ATOM     36  H2  THR A   1       5.297  -2.337  19.910  0.00  0.00    +0.119 HD
ENDBRANCH  33  34
BRANCH  33  37
ATOM     37  CB  THR A   1       6.014   0.351  18.250  0.00  0.00    +0.137 C 
ATOM     38  CG2 THR A   1       5.108   1.439  18.820  0.00  0.00    +0.040 C 
BRANCH  37  39
ATOM     39  OG1 THR A   1       7.217   0.988  17.785  0.00  0.00    -0.390 OA
ATOM     40  HG1 THR A   1       7.515   0.493  17.001  0.00  0.00    +0.210 HD
ENDBRANCH  37  39
ENDBRANCH  33  37
ENDBRANCH  29  33
ENDBRANCH  28  30
BRANCH  28  41
ATOM     41  CB  LYS A   2       6.868   2.069  23.120  0.00  0.00    +0.032 C 
BRANCH  41  42
ATOM     42  CG  LYS A   2       7.962   3.086  22.794  0.00  0.00    +0.007 C 
BRANCH  42  43
ATOM     43  CD  LYS A   2       9.107   3.099  23.809  0.00  0.00    +0.051 C 
BRANCH  43  44
ATOM     44  CE  LYS A   2      10.341   2.481  23.168  0.00  0.00    +0.127 C 
BRANCH  44  45
ATOM     45  NZ  LYS A   2      10.162   2.366  21.707  0.00  0.00    +0.219 N 
ATOM     46  HZ1 LYS A   2      10.709   1.600  21.300  0.00  0.00    +0.199 HD
ATOM     47  HZ2 LYS A   2      10.465   3.257  21.275  0.00  0.00    +0.199 HD
ATOM     48  HZ3 LYS A   2       9.176   2.245  21.449  0.00  0.00    +0.199 HD
ENDBRANCH  44  45
ENDBRANCH  43  44
ENDBRANCH  42  43
ENDBRANCH  41  42
ENDBRANCH  28  41
ENDBRANCH  24  28
ENDBRANCH   1  26
BRANCH   1  49
ATOM     49  CB  LEU A   3       5.407  -0.821  26.374  0.00  0.00    +0.034 C 
BRANCH  49  50
ATOM     50  CG  LEU A   3       4.739  -0.645  27.754  0.00  0.00    -0.015 C 
ATOM     51  CD2 LEU A   3       3.687   0.467  27.686  0.00  0.00    +0.007 C 
ATOM     52  CD1 LEU A   3       4.086  -1.936  28.250  0.00  0.00    +0.007 C 
ENDBRANCH  49  50
ENDBRANCH   1  49
TORSDOF 24
ENDMDL
MODEL 19
REMARK VINA RESULT:      -5.8      2.461      7.295
REMARK  Name = TKLQS-mmff94.pdb
REMARK  27 active torsions:
REMARK  status: ('A' for Active; 'I' for Inactive)
REMARK    1  A    between atoms: _1  and  _2
REMARK    2  A    between atoms: _2  and  _3
REMARK    3  A    between atoms: _2  and  _5
REMARK    4  A    between atoms: _5  and  _6
REMARK    5  A    between atoms: _5  and  _7
REMARK    6  A    between atoms: _15  and  _16
REMARK    7  A    between atoms: _16  and  _17
REMARK    8  A    between atoms: _16  and  _19
REMARK    9  A    between atoms: _19  and  _20
REMARK   10  A    between atoms: _20  and  _21
REMARK   11  A    between atoms: _21  and  _22
REMARK   12  A    between atoms: _22  and  _23
REMARK   13  A    between atoms: _37  and  _38
REMARK   14  A    between atoms: _38  and  _39
REMARK   15  A    between atoms: _38  and  _41
REMARK   16  A    between atoms: _41  and  _42
REMARK   17  A    between atoms: _42  and  _43
REMARK   18  A    between atoms: _42  and  _44
REMARK   19  A    between atoms: _56  and  _57
REMARK   20  A    between atoms: _57  and  _58
REMARK   21  A    between atoms: _57  and  _60
REMARK   22  A    between atoms: _60  and  _61
REMARK   23  A    between atoms: _61  and  _62
REMARK   24  A    between atoms: _73  and  _74
REMARK   25  A    between atoms: _74  and  _75
REMARK   26  A    between atoms: _74  and  _77
REMARK   27  A    between atoms: _77  and  _78
REMARK                            x       y       z     vdW  Elec       q    Type
REMARK                         _______ _______ _______ _____ _____    ______ ____
ROOT
ATOM      1  CA  LEU A   3       7.168  -0.104  21.006  0.00  0.00    +0.159 C 
ENDROOT
BRANCH   1   2
ATOM      2  C   LEU A   3       7.843  -1.358  21.610  0.00  0.00    +0.234 C 
ATOM      3  O   LEU A   3       9.067  -1.497  21.668  0.00  0.00    -0.274 OA
ATOM      4  N   GLN A   4       6.980  -2.303  22.105  0.00  0.00    -0.302 N 
ATOM      5  H   GLN A   4       5.971  -2.155  22.074  0.00  0.00    +0.150 HD
BRANCH   4   6
ATOM      6  CA  GLN A   4       7.436  -3.553  22.713  0.00  0.00    +0.159 C 
BRANCH   6   7
ATOM      7  C   GLN A   4       6.307  -4.575  22.471  0.00  0.00    +0.234 C 
ATOM      8  O   GLN A   4       5.946  -4.889  21.338  0.00  0.00    -0.274 OA
ATOM      9  N   SER A   5       5.720  -5.091  23.594  0.00  0.00    -0.302 N 
ATOM     10  H   SER A   5       6.000  -4.795  24.525  0.00  0.00    +0.150 HD
BRANCH   9  11
ATOM     11  CA  SER A   5       4.557  -5.981  23.527  0.00  0.00    +0.161 C 
BRANCH  11  12
ATOM     12  CB  SER A   5       3.318  -5.102  23.449  0.00  0.00    +0.247 C 
ATOM     13  OG  SER A   5       2.762  -4.649  24.453  0.00  0.00    -0.299 OA
ENDBRANCH  11  12
BRANCH  11  14
ATOM     14  C   SER A   5       4.453  -6.932  24.723  0.00  0.00    +0.185 C 
BRANCH  14  15
ATOM     15  O   SER A   5       5.320  -6.520  25.778  0.00  0.00    -0.393 OA
ATOM     16  H   SER A   5       5.652  -7.330  26.205  0.00  0.00    +0.209 HD
ENDBRANCH  14  15
ENDBRANCH  11  14
ENDBRANCH   9  11
ENDBRANCH   6   7
BRANCH   6  17
ATOM     17  CB  GLN A   4       7.720  -3.353  24.211  0.00  0.00    +0.041 C 
BRANCH  17  18
ATOM     18  CG  GLN A   4       9.123  -3.796  24.623  0.00  0.00    +0.098 C 
BRANCH  18  19
ATOM     19  CD  GLN A   4       9.053  -5.080  25.432  0.00  0.00    +0.211 C 
ATOM     20  OE1 GLN A   4       8.000  -5.582  25.826  0.00  0.00    -0.276 OA
ATOM     21  NE2 GLN A   4      10.254  -5.691  25.636  0.00  0.00    -0.329 N 
ATOM     22 HE21 GLN A   4      11.137  -5.229  25.444  0.00  0.00    +0.145 HD
ATOM     23 HE22 GLN A   4      10.292  -6.524  26.207  0.00  0.00    +0.145 HD
ENDBRANCH  18  19
ENDBRANCH  17  18
ENDBRANCH   6  17
ENDBRANCH   4   6
ENDBRANCH   1   2
BRANCH   1  26
ATOM     24  C   LYS A   2       6.573   2.092  22.015  0.00  0.00    +0.234 C 
ATOM     25  O   LYS A   2       5.699   2.339  21.185  0.00  0.00    -0.274 OA
ATOM     26  N   LEU A   3       7.384   0.983  21.955  0.00  0.00    -0.302 N 
ATOM     27  H   LEU A   3       8.007   0.781  22.730  0.00  0.00    +0.150 HD
BRANCH  24  28
ATOM     28  CA  LYS A   2       6.802   2.981  23.251  0.00  0.00    +0.159 C 
BRANCH  28  30
ATOM     29  C   THR A   1       5.254   1.865  24.821  0.00  0.00    +0.233 C 
ATOM     30  N   LYS A   2       6.541   2.157  24.420  0.00  0.00    -0.303 N 
ATOM     31  H   LYS A   2       7.334   1.690  24.849  0.00  0.00    +0.149 HD
ATOM     32  O   THR A   1       4.277   2.357  24.261  0.00  0.00    -0.274 OA
BRANCH  29  33
ATOM     33  CA  THR A   1       5.170   0.852  25.976  0.00  0.00    +0.166 C 
BRANCH  33  34
ATOM     34  N   THR A   1       3.780   0.774  26.479  0.00  0.00    -0.318 NA
ATOM     35  H1  THR A   1       3.644  -0.176  26.835  0.00  0.00    +0.119 HD
ATOM     36  H2  THR A   1       3.663   1.407  27.266  0.00  0.00    +0.119 HD
ENDBRANCH  33  34
BRANCH  33  37
ATOM     37  CB  THR A   1       5.656  -0.536  25.507  0.00  0.00    +0.137 C 
ATOM     38  CG2 THR A   1       4.812  -1.679  26.065  0.00  0.00    +0.040 C 
BRANCH  37  39
ATOM     39  OG1 THR A   1       5.560  -0.585  24.073  0.00  0.00    -0.390 OA
ATOM     40  HG1 THR A   1       5.306   0.306  23.774  0.00  0.00    +0.210 HD
ENDBRANCH  37  39
ENDBRANCH  33  37
ENDBRANCH  29  33
ENDBRANCH  28  30
BRANCH  28  41
ATOM     41  CB  LYS A   2       8.240   3.523  23.277  0.00  0.00    +0.032 C 
BRANCH  41  42
ATOM     42  CG  LYS A   2       9.062   2.924  24.418  0.00  0.00    +0.007 C 
BRANCH  42  43
ATOM     43  CD  LYS A   2      10.343   2.231  23.951  0.00  0.00    +0.051 C 
BRANCH  43  44
ATOM     44  CE  LYS A   2      10.224   0.739  24.224  0.00  0.00    +0.127 C 
BRANCH  44  45
ATOM     45  NZ  LYS A   2       9.583   0.502  25.533  0.00  0.00    +0.219 N 
ATOM     46  HZ1 LYS A   2       9.602  -0.485  25.810  0.00  0.00    +0.199 HD
ATOM     47  HZ2 LYS A   2       8.597   0.811  25.468  0.00  0.00    +0.199 HD
ATOM     48  HZ3 LYS A   2      10.011   1.065  26.277  0.00  0.00    +0.199 HD
ENDBRANCH  44  45
ENDBRANCH  43  44
ENDBRANCH  42  43
ENDBRANCH  41  42
ENDBRANCH  28  41
ENDBRANCH  24  28
ENDBRANCH   1  26
BRANCH   1  49
ATOM     49  CB  LEU A   3       7.756   0.238  19.631  0.00  0.00    +0.034 C 
BRANCH  49  50
ATOM     50  CG  LEU A   3       6.816  -0.069  18.447  0.00  0.00    -0.015 C 
ATOM     51  CD2 LEU A   3       5.702  -1.018  18.900  0.00  0.00    +0.007 C 
ATOM     52  CD1 LEU A   3       6.196   1.199  17.856  0.00  0.00    +0.007 C 
ENDBRANCH  49  50
ENDBRANCH   1  49
TORSDOF 24
ENDMDL
MODEL 20
REMARK VINA RESULT:      -5.7      2.186      5.597
REMARK  Name = TKLQS-mmff94.pdb
REMARK  27 active torsions:
REMARK  status: ('A' for Active; 'I' for Inactive)
REMARK    1  A    between atoms: _1  and  _2
REMARK    2  A    between atoms: _2  and  _3
REMARK    3  A    between atoms: _2  and  _5
REMARK    4  A    between atoms: _5  and  _6
REMARK    5  A    between atoms: _5  and  _7
REMARK    6  A    between atoms: _15  and  _16
REMARK    7  A    between atoms: _16  and  _17
REMARK    8  A    between atoms: _16  and  _19
REMARK    9  A    between atoms: _19  and  _20
REMARK   10  A    between atoms: _20  and  _21
REMARK   11  A    between atoms: _21  and  _22
REMARK   12  A    between atoms: _22  and  _23
REMARK   13  A    between atoms: _37  and  _38
REMARK   14  A    between atoms: _38  and  _39
REMARK   15  A    between atoms: _38  and  _41
REMARK   16  A    between atoms: _41  and  _42
REMARK   17  A    between atoms: _42  and  _43
REMARK   18  A    between atoms: _42  and  _44
REMARK   19  A    between atoms: _56  and  _57
REMARK   20  A    between atoms: _57  and  _58
REMARK   21  A    between atoms: _57  and  _60
REMARK   22  A    between atoms: _60  and  _61
REMARK   23  A    between atoms: _61  and  _62
REMARK   24  A    between atoms: _73  and  _74
REMARK   25  A    between atoms: _74  and  _75
REMARK   26  A    between atoms: _74  and  _77
REMARK   27  A    between atoms: _77  and  _78
REMARK                            x       y       z     vdW  Elec       q    Type
REMARK                         _______ _______ _______ _____ _____    ______ ____
ROOT
ATOM      1  CA  LEU A   3       7.444  -0.491  25.538  0.00  0.00    +0.159 C 
ENDROOT
BRANCH   1   2
ATOM      2  C   LEU A   3       6.894   0.214  24.277  0.00  0.00    +0.234 C 
ATOM      3  O   LEU A   3       6.133  -0.339  23.478  0.00  0.00    -0.274 OA
ATOM      4  N   GLN A   4       7.291   1.518  24.119  0.00  0.00    -0.302 N 
ATOM      5  H   GLN A   4       7.895   1.966  24.807  0.00  0.00    +0.150 HD
BRANCH   4   6
ATOM      6  CA  GLN A   4       6.869   2.343  22.987  0.00  0.00    +0.159 C 
BRANCH   6   7
ATOM      7  C   GLN A   4       7.296   1.572  21.722  0.00  0.00    +0.234 C 
ATOM      8  O   GLN A   4       8.479   1.433  21.413  0.00  0.00    -0.274 OA
ATOM      9  N   SER A   5       6.278   1.071  20.957  0.00  0.00    -0.302 N 
ATOM     10  H   SER A   5       5.304   1.225  21.202  0.00  0.00    +0.150 HD
BRANCH   9  11
ATOM     11  CA  SER A   5       6.520   0.419  19.666  0.00  0.00    +0.161 C 
BRANCH  11  12
ATOM     12  CB  SER A   5       5.838   1.262  18.599  0.00  0.00    +0.247 C 
ATOM     13  OG  SER A   5       6.226   1.289  17.428  0.00  0.00    -0.299 OA
ENDBRANCH  11  12
BRANCH  11  14
ATOM     14  C   SER A   5       6.005  -1.021  19.610  0.00  0.00    +0.185 C 
BRANCH  14  15
ATOM     15  O   SER A   5       5.654  -1.385  18.276  0.00  0.00    -0.393 OA
ATOM     16  H   SER A   5       6.387  -1.922  17.926  0.00  0.00    +0.209 HD
ENDBRANCH  14  15
ENDBRANCH  11  14
ENDBRANCH   9  11
ENDBRANCH   6   7
BRANCH   6  17
ATOM     17  CB  GLN A   4       7.522   3.735  23.059  0.00  0.00    +0.041 C 
BRANCH  17  18
ATOM     18  CG  GLN A   4       8.555   3.858  24.178  0.00  0.00    +0.098 C 
BRANCH  18  19
ATOM     19  CD  GLN A   4       9.884   4.332  23.616  0.00  0.00    +0.211 C 
ATOM     20  OE1 GLN A   4      10.413   5.401  23.925  0.00  0.00    -0.276 OA
ATOM     21  NE2 GLN A   4      10.500   3.445  22.785  0.00  0.00    -0.329 N 
ATOM     22 HE21 GLN A   4      10.024   2.632  22.411  0.00  0.00    +0.145 HD
ATOM     23 HE22 GLN A   4      11.365   3.712  22.335  0.00  0.00    +0.145 HD
ENDBRANCH  18  19
ENDBRANCH  17  18
ENDBRANCH   6  17
ENDBRANCH   4   6
ENDBRANCH   1   2
BRANCH   1  26
ATOM     24  C   LYS A   2       5.728  -2.171  26.197  0.00  0.00    +0.234 C 
ATOM     25  O   LYS A   2       5.145  -1.407  26.964  0.00  0.00    -0.274 OA
ATOM     26  N   LEU A   3       6.889  -1.842  25.537  0.00  0.00    -0.302 N 
ATOM     27  H   LEU A   3       7.257  -2.473  24.833  0.00  0.00    +0.150 HD
BRANCH  24  28
ATOM     28  CA  LYS A   2       5.173  -3.564  25.849  0.00  0.00    +0.159 C 
BRANCH  28  30
ATOM     29  C   THR A   1       4.828  -4.116  23.465  0.00  0.00    +0.233 C 
ATOM     30  N   LYS A   2       5.680  -3.905  24.530  0.00  0.00    -0.303 N 
ATOM     31  H   LYS A   2       6.684  -3.845  24.384  0.00  0.00    +0.149 HD
ATOM     32  O   THR A   1       3.608  -4.111  23.605  0.00  0.00    -0.274 OA
BRANCH  29  33
ATOM     33  CA  THR A   1       5.544  -4.306  22.116  0.00  0.00    +0.166 C 
BRANCH  33  34
ATOM     34  N   THR A   1       6.776  -3.487  22.079  0.00  0.00    -0.318 NA
ATOM     35  H1  THR A   1       7.212  -3.644  21.167  0.00  0.00    +0.119 HD
ATOM     36  H2  THR A   1       6.534  -2.500  22.128  0.00  0.00    +0.119 HD
ENDBRANCH  33  34
BRANCH  33  37
ATOM     37  CB  THR A   1       5.876  -5.797  21.892  0.00  0.00    +0.137 C 
ATOM     38  CG2 THR A   1       7.351  -6.116  22.122  0.00  0.00    +0.040 C 
BRANCH  37  39
ATOM     39  OG1 THR A   1       5.112  -6.574  22.830  0.00  0.00    -0.390 OA
ATOM     40  HG1 THR A   1       4.936  -6.002  23.597  0.00  0.00    +0.210 HD
ENDBRANCH  37  39
ENDBRANCH  33  37
ENDBRANCH  29  33
ENDBRANCH  28  30
BRANCH  28  41
ATOM     41  CB  LYS A   2       5.617  -4.606  26.889  0.00  0.00    +0.032 C 
BRANCH  41  42
ATOM     42  CG  LYS A   2       6.665  -5.568  26.330  0.00  0.00    +0.007 C 
BRANCH  42  43
ATOM     43  CD  LYS A   2       8.075  -5.316  26.868  0.00  0.00    +0.051 C 
BRANCH  43  44
ATOM     44  CE  LYS A   2       8.949  -4.800  25.734  0.00  0.00    +0.127 C 
BRANCH  44  45
ATOM     45  NZ  LYS A   2      10.183  -5.604  25.624  0.00  0.00    +0.219 N 
ATOM     46  HZ1 LYS A   2      10.534  -5.661  24.663  0.00  0.00    +0.199 HD
ATOM     47  HZ2 LYS A   2       9.973  -6.561  25.960  0.00  0.00    +0.199 HD
ATOM     48  HZ3 LYS A   2      10.929  -5.247  26.232  0.00  0.00    +0.199 HD
ENDBRANCH  44  45
ENDBRANCH  43  44
ENDBRANCH  42  43
ENDBRANCH  41  42
ENDBRANCH  28  41
ENDBRANCH  24  28
ENDBRANCH   1  26
BRANCH   1  49
ATOM     49  CB  LEU A   3       8.978  -0.526  25.533  0.00  0.00    +0.034 C 
BRANCH  49  50
ATOM     50  CG  LEU A   3       9.605  -0.588  24.124  0.00  0.00    -0.015 C 
ATOM     51  CD2 LEU A   3      10.853   0.298  24.071  0.00  0.00    +0.007 C 
ATOM     52  CD1 LEU A   3       9.975  -2.016  23.718  0.00  0.00    +0.007 C 
ENDBRANCH  49  50
ENDBRANCH   1  49
TORSDOF 24
ENDMDL
