REMARK  Name = VLHS-mmff94.pdb
REMARK  19 active torsions:
REMARK  status: ('A' for Active; 'I' for Inactive)
REMARK    1  A    between atoms: _1  and  _2
REMARK    2  A    between atoms: _2  and  _3
REMARK    3  A    between atoms: _2  and  _5
REMARK    4  A    between atoms: _5  and  _6
REMARK    5  A    between atoms: _5  and  _7
REMARK    6  A    between atoms: _17  and  _18
REMARK    7  A    between atoms: _18  and  _19
REMARK    8  A    between atoms: _18  and  _21
REMARK    9  A    between atoms: _21  and  _22
REMARK   10  A    between atoms: _22  and  _23
REMARK   11  A    between atoms: _22  and  _24
REMARK   12  A    between atoms: _36  and  _37
REMARK   13  A    between atoms: _37  and  _38
REMARK   14  A    between atoms: _37  and  _40
REMARK   15  A    between atoms: _40  and  _41
REMARK   16  A    between atoms: _53  and  _54
REMARK   17  A    between atoms: _54  and  _55
REMARK   18  A    between atoms: _54  and  _57
REMARK   19  A    between atoms: _57  and  _58
REMARK                            x       y       z     vdW  Elec       q    Type
REMARK                         _______ _______ _______ _____ _____    ______ ____
ROOT
ATOM      1  C   LEU A   2       4.335   1.565  -1.072  0.00  0.00    +0.234 C 
ATOM      2  O   LEU A   2       3.506   2.436  -1.343  0.00  0.00    -0.274 OA
ATOM      3  N   HIS A   3       5.626   1.863  -0.713  0.00  0.00    -0.302 N 
ATOM      4  H   HIS A   3       6.310   1.134  -0.527  0.00  0.00    +0.150 HD
ENDROOT
BRANCH   1   5
ATOM      5  CA  LEU A   2       3.988   0.065  -1.125  0.00  0.00    +0.159 C 
BRANCH   5   7
ATOM      6  C   VAL A   1       1.733  -0.721  -0.448  0.00  0.00    +0.231 C 
ATOM      7  N   LEU A   2       2.539  -0.004  -1.298  0.00  0.00    -0.303 N 
ATOM      8  H   LEU A   2       2.129   0.786  -1.791  0.00  0.00    +0.149 HD
ATOM      9  O   VAL A   1       2.165  -1.511   0.388  0.00  0.00    -0.274 OA
BRANCH   6  10
ATOM     10  CA  VAL A   1       0.217  -0.487  -0.664  0.00  0.00    +0.140 C 
BRANCH  10  11
ATOM     11  N   VAL A   1      -0.415  -1.806  -0.881  0.00  0.00    -0.320 NA
ATOM     12  H1  VAL A   1       0.061  -2.270  -1.657  0.00  0.00    +0.119 HD
ATOM     13  H2  VAL A   1      -0.196  -2.386  -0.065  0.00  0.00    +0.119 HD
ENDBRANCH  10  11
BRANCH  10  14
ATOM     14  CB  VAL A   1      -0.397   0.243   0.553  0.00  0.00    +0.009 C 
ATOM     15  CG2 VAL A   1       0.245   1.621   0.760  0.00  0.00    +0.009 C 
ATOM     16  CG1 VAL A   1      -1.913   0.419   0.405  0.00  0.00    +0.009 C 
ENDBRANCH  10  14
ENDBRANCH   6  10
ENDBRANCH   5   7
BRANCH   5  17
ATOM     17  CB  LEU A   2       4.720  -0.612  -2.292  0.00  0.00    +0.034 C 
BRANCH  17  18
ATOM     18  CG  LEU A   2       4.507  -2.136  -2.379  0.00  0.00    -0.015 C 
ATOM     19  CD2 LEU A   2       5.127  -2.873  -1.190  0.00  0.00    +0.007 C 
ATOM     20  CD1 LEU A   2       5.109  -2.668  -3.682  0.00  0.00    +0.007 C 
ENDBRANCH  17  18
ENDBRANCH   5  17
ENDBRANCH   1   5
BRANCH   3  21
ATOM     21  CA  HIS A   3       6.100   3.248  -0.662  0.00  0.00    +0.165 C 
BRANCH  21  22
ATOM     22  C   HIS A   3       7.637   3.224  -0.692  0.00  0.00    +0.234 C 
ATOM     23  O   HIS A   3       8.271   2.173  -0.574  0.00  0.00    -0.274 OA
ATOM     24  N   SER A   4       8.255   4.438  -0.882  0.00  0.00    -0.302 N 
ATOM     25  H   SER A   4       7.705   5.296  -0.739  0.00  0.00    +0.150 HD
BRANCH  24  26
ATOM     26  CA  SER A   4       9.712   4.557  -0.828  0.00  0.00    +0.161 C 
BRANCH  26  27
ATOM     27  C   SER A   4      10.120   6.021  -0.733  0.00  0.00    +0.247 C 
ATOM     28  O   SER A   4       9.378   6.915  -0.332  0.00  0.00    -0.299 OA
ENDBRANCH  26  27
BRANCH  26  29
ATOM     29  CB  SER A   4      10.397   3.928  -2.050  0.00  0.00    +0.185 C 
BRANCH  29  30
ATOM     30  OG  SER A   4       9.923   4.515  -3.261  0.00  0.00    -0.393 OA
ATOM     31  H   SER A   4       8.953   4.409  -3.257  0.00  0.00    +0.209 HD
ENDBRANCH  29  30
ENDBRANCH  26  29
ENDBRANCH  24  26
ENDBRANCH  21  22
BRANCH  21  32
ATOM     32  CB  HIS A   3       5.595   3.975   0.590  0.00  0.00    +0.088 C 
BRANCH  32  33
ATOM     33  CG  HIS A   3       5.057   5.315   0.241  0.00  0.00    +0.061 A 
ATOM     34  ND1 HIS A   3       5.877   6.267  -0.315  0.00  0.00    -0.241 NA
ATOM     35  CE1 HIS A   3       5.101   7.305  -0.533  0.00  0.00    +0.196 A 
ATOM     36  NE2 HIS A   3       3.810   7.055  -0.159  0.00  0.00    -0.351 N 
ATOM     37  HE2 HIS A   3       3.030   7.693  -0.247  0.00  0.00    +0.166 HD
ATOM     38  CD2 HIS A   3       3.766   5.784   0.338  0.00  0.00    +0.107 A 
ENDBRANCH  32  33
ENDBRANCH  21  32
ENDBRANCH   3  21
TORSDOF 15
