MODEL 1
REMARK VINA RESULT:      -6.8      0.000      0.000
REMARK  Name = VLHS-mmff94.pdb
REMARK  19 active torsions:
REMARK  status: ('A' for Active; 'I' for Inactive)
REMARK    1  A    between atoms: _1  and  _2
REMARK    2  A    between atoms: _2  and  _3
REMARK    3  A    between atoms: _2  and  _5
REMARK    4  A    between atoms: _5  and  _6
REMARK    5  A    between atoms: _5  and  _7
REMARK    6  A    between atoms: _17  and  _18
REMARK    7  A    between atoms: _18  and  _19
REMARK    8  A    between atoms: _18  and  _21
REMARK    9  A    between atoms: _21  and  _22
REMARK   10  A    between atoms: _22  and  _23
REMARK   11  A    between atoms: _22  and  _24
REMARK   12  A    between atoms: _36  and  _37
REMARK   13  A    between atoms: _37  and  _38
REMARK   14  A    between atoms: _37  and  _40
REMARK   15  A    between atoms: _40  and  _41
REMARK   16  A    between atoms: _53  and  _54
REMARK   17  A    between atoms: _54  and  _55
REMARK   18  A    between atoms: _54  and  _57
REMARK   19  A    between atoms: _57  and  _58
REMARK                            x       y       z     vdW  Elec       q    Type
REMARK                         _______ _______ _______ _____ _____    ______ ____
ROOT
ATOM      1  C   LEU A   2       9.177  -1.544  24.048  0.00  0.00    +0.234 C 
ATOM      2  O   LEU A   2      10.141  -1.988  23.422  0.00  0.00    -0.274 OA
ATOM      3  N   HIS A   3       7.887  -1.936  23.789  0.00  0.00    -0.302 N 
ATOM      4  H   HIS A   3       7.097  -1.536  24.288  0.00  0.00    +0.150 HD
ENDROOT
BRANCH   1   5
ATOM      5  CA  LEU A   2       9.343  -0.502  25.170  0.00  0.00    +0.159 C 
BRANCH   5   7
ATOM      6  C   VAL A   1      10.553   1.383  24.099  0.00  0.00    +0.231 C 
ATOM      7  N   LEU A   2       9.378   0.799  24.505  0.00  0.00    -0.303 N 
ATOM      8  H   LEU A   2       8.525   1.048  24.009  0.00  0.00    +0.149 HD
ATOM      9  O   VAL A   1      11.662   0.973  24.432  0.00  0.00    -0.274 OA
BRANCH   6  10
ATOM     10  CA  VAL A   1      10.363   2.644  23.219  0.00  0.00    +0.140 C 
BRANCH  10  11
ATOM     11  N   VAL A   1      10.024   2.192  21.853  0.00  0.00    -0.320 NA
ATOM     12  H1  VAL A   1       9.018   2.303  21.714  0.00  0.00    +0.119 HD
ATOM     13  H2  VAL A   1      10.446   2.858  21.199  0.00  0.00    +0.119 HD
ENDBRANCH  10  11
BRANCH  10  14
ATOM     14  CB  VAL A   1       9.257   3.553  23.806  0.00  0.00    +0.009 C 
ATOM     15  CG2 VAL A   1       9.782   4.969  24.073  0.00  0.00    +0.009 C 
ATOM     16  CG1 VAL A   1       8.041   3.641  22.877  0.00  0.00    +0.009 C 
ENDBRANCH  10  14
ENDBRANCH   6  10
ENDBRANCH   5   7
BRANCH   5  17
ATOM     17  CB  LEU A   2       8.173  -0.589  26.159  0.00  0.00    +0.034 C 
BRANCH  17  18
ATOM     18  CG  LEU A   2       7.326   0.695  26.259  0.00  0.00    -0.015 C 
ATOM     19  CD2 LEU A   2       7.082   1.112  27.711  0.00  0.00    +0.007 C 
ATOM     20  CD1 LEU A   2       5.984   0.485  25.554  0.00  0.00    +0.007 C 
ENDBRANCH  17  18
ENDBRANCH   5  17
ENDBRANCH   1   5
BRANCH   3  21
ATOM     21  CA  HIS A   3       7.583  -2.892  22.721  0.00  0.00    +0.165 C 
BRANCH  21  22
ATOM     22  C   HIS A   3       6.773  -2.154  21.642  0.00  0.00    +0.234 C 
ATOM     23  O   HIS A   3       5.770  -2.656  21.129  0.00  0.00    -0.274 OA
ATOM     24  N   SER A   4       7.221  -0.898  21.305  0.00  0.00    -0.302 N 
ATOM     25  H   SER A   4       8.175  -0.628  21.580  0.00  0.00    +0.150 HD
BRANCH  24  26
ATOM     26  CA  SER A   4       6.594  -0.142  20.222  0.00  0.00    +0.161 C 
BRANCH  26  27
ATOM     27  C   SER A   4       7.496  -0.126  18.996  0.00  0.00    +0.247 C 
ATOM     28  O   SER A   4       7.321   0.606  18.024  0.00  0.00    -0.299 OA
ENDBRANCH  26  27
BRANCH  26  29
ATOM     29  CB  SER A   4       6.278   1.306  20.625  0.00  0.00    +0.185 C 
BRANCH  29  30
ATOM     30  OG  SER A   4       5.203   1.831  19.847  0.00  0.00    -0.393 OA
ATOM     31  H   SER A   4       5.559   1.976  18.949  0.00  0.00    +0.209 HD
ENDBRANCH  29  30
ENDBRANCH  26  29
ENDBRANCH  24  26
ENDBRANCH  21  22
BRANCH  21  32
ATOM     32  CB  HIS A   3       6.805  -4.103  23.248  0.00  0.00    +0.088 C 
BRANCH  32  33
ATOM     33  CG  HIS A   3       7.543  -4.764  24.355  0.00  0.00    +0.061 A 
ATOM     34  ND1 HIS A   3       8.888  -5.017  24.235  0.00  0.00    -0.241 NA
ATOM     35  CE1 HIS A   3       9.238  -5.565  25.377  0.00  0.00    +0.196 A 
ATOM     36  NE2 HIS A   3       8.179  -5.657  26.236  0.00  0.00    -0.351 N 
ATOM     37  HE2 HIS A   3       8.206  -6.025  27.178  0.00  0.00    +0.166 HD
ATOM     38  CD2 HIS A   3       7.086  -5.148  25.596  0.00  0.00    +0.107 A 
ENDBRANCH  32  33
ENDBRANCH  21  32
ENDBRANCH   3  21
TORSDOF 15
ENDMDL
MODEL 2
REMARK VINA RESULT:      -6.6      1.696      2.289
REMARK  Name = VLHS-mmff94.pdb
REMARK  19 active torsions:
REMARK  status: ('A' for Active; 'I' for Inactive)
REMARK    1  A    between atoms: _1  and  _2
REMARK    2  A    between atoms: _2  and  _3
REMARK    3  A    between atoms: _2  and  _5
REMARK    4  A    between atoms: _5  and  _6
REMARK    5  A    between atoms: _5  and  _7
REMARK    6  A    between atoms: _17  and  _18
REMARK    7  A    between atoms: _18  and  _19
REMARK    8  A    between atoms: _18  and  _21
REMARK    9  A    between atoms: _21  and  _22
REMARK   10  A    between atoms: _22  and  _23
REMARK   11  A    between atoms: _22  and  _24
REMARK   12  A    between atoms: _36  and  _37
REMARK   13  A    between atoms: _37  and  _38
REMARK   14  A    between atoms: _37  and  _40
REMARK   15  A    between atoms: _40  and  _41
REMARK   16  A    between atoms: _53  and  _54
REMARK   17  A    between atoms: _54  and  _55
REMARK   18  A    between atoms: _54  and  _57
REMARK   19  A    between atoms: _57  and  _58
REMARK                            x       y       z     vdW  Elec       q    Type
REMARK                         _______ _______ _______ _____ _____    ______ ____
ROOT
ATOM      1  C   LEU A   2       9.026  -1.399  24.281  0.00  0.00    +0.234 C 
ATOM      2  O   LEU A   2       9.682  -2.421  24.070  0.00  0.00    -0.274 OA
ATOM      3  N   HIS A   3       8.030  -0.976  23.436  0.00  0.00    -0.302 N 
ATOM      4  H   HIS A   3       7.521  -0.112  23.602  0.00  0.00    +0.150 HD
ENDROOT
BRANCH   1   5
ATOM      5  CA  LEU A   2       9.281  -0.506  25.510  0.00  0.00    +0.159 C 
BRANCH   5   7
ATOM      6  C   VAL A   1      10.296   1.475  24.412  0.00  0.00    +0.231 C 
ATOM      7  N   LEU A   2       9.225   0.870  25.022  0.00  0.00    -0.303 N 
ATOM      8  H   LEU A   2       8.292   1.204  24.790  0.00  0.00    +0.149 HD
ATOM      9  O   VAL A   1      11.428   0.997  24.403  0.00  0.00    -0.274 OA
BRANCH   6  10
ATOM     10  CA  VAL A   1       9.968   2.846  23.769  0.00  0.00    +0.140 C 
BRANCH  10  11
ATOM     11  N   VAL A   1      10.575   2.867  22.421  0.00  0.00    -0.320 NA
ATOM     12  H1  VAL A   1      10.642   3.838  22.110  0.00  0.00    +0.119 HD
ATOM     13  H2  VAL A   1      11.549   2.564  22.521  0.00  0.00    +0.119 HD
ENDBRANCH  10  11
BRANCH  10  14
ATOM     14  CB  VAL A   1       8.438   3.062  23.706  0.00  0.00    +0.009 C 
ATOM     15  CG2 VAL A   1       8.051   4.458  24.210  0.00  0.00    +0.009 C 
ATOM     16  CG1 VAL A   1       7.896   2.880  22.283  0.00  0.00    +0.009 C 
ENDBRANCH  10  14
ENDBRANCH   6  10
ENDBRANCH   5   7
BRANCH   5  17
ATOM     17  CB  LEU A   2       8.214  -0.759  26.585  0.00  0.00    +0.034 C 
BRANCH  17  18
ATOM     18  CG  LEU A   2       7.159   0.357  26.709  0.00  0.00    -0.015 C 
ATOM     19  CD2 LEU A   2       7.017   0.859  28.147  0.00  0.00    +0.007 C 
ATOM     20  CD1 LEU A   2       5.805  -0.154  26.209  0.00  0.00    +0.007 C 
ENDBRANCH  17  18
ENDBRANCH   5  17
ENDBRANCH   1   5
BRANCH   3  21
ATOM     21  CA  HIS A   3       7.711  -1.710  22.209  0.00  0.00    +0.165 C 
BRANCH  21  22
ATOM     22  C   HIS A   3       7.717  -0.709  21.043  0.00  0.00    +0.234 C 
ATOM     23  O   HIS A   3       8.764  -0.210  20.623  0.00  0.00    -0.274 OA
ATOM     24  N   SER A   4       6.492  -0.425  20.486  0.00  0.00    -0.302 N 
ATOM     25  H   SER A   4       5.644  -0.675  21.012  0.00  0.00    +0.150 HD
BRANCH  24  26
ATOM     26  CA  SER A   4       6.358   0.588  19.438  0.00  0.00    +0.161 C 
BRANCH  26  27
ATOM     27  C   SER A   4       5.316   1.624  19.835  0.00  0.00    +0.247 C 
ATOM     28  O   SER A   4       4.222   1.742  19.286  0.00  0.00    -0.299 OA
ENDBRANCH  26  27
BRANCH  26  29
ATOM     29  CB  SER A   4       5.966  -0.019  18.083  0.00  0.00    +0.185 C 
BRANCH  29  30
ATOM     30  OG  SER A   4       5.611  -1.394  18.222  0.00  0.00    -0.393 OA
ATOM     31  H   SER A   4       5.066  -1.618  17.444  0.00  0.00    +0.209 HD
ENDBRANCH  29  30
ENDBRANCH  26  29
ENDBRANCH  24  26
ENDBRANCH  21  22
BRANCH  21  32
ATOM     32  CB  HIS A   3       6.354  -2.417  22.308  0.00  0.00    +0.088 C 
BRANCH  32  33
ATOM     33  CG  HIS A   3       6.501  -3.876  22.068  0.00  0.00    +0.061 A 
ATOM     34  ND1 HIS A   3       5.812  -4.482  21.045  0.00  0.00    -0.241 NA
ATOM     35  CE1 HIS A   3       6.182  -5.742  21.079  0.00  0.00    +0.196 A 
ATOM     36  NE2 HIS A   3       7.097  -5.970  22.069  0.00  0.00    -0.351 N 
ATOM     37  HE2 HIS A   3       7.541  -6.855  22.278  0.00  0.00    +0.166 HD
ATOM     38  CD2 HIS A   3       7.312  -4.784  22.711  0.00  0.00    +0.107 A 
ENDBRANCH  32  33
ENDBRANCH  21  32
ENDBRANCH   3  21
TORSDOF 15
ENDMDL
MODEL 3
REMARK VINA RESULT:      -6.5      2.142      4.830
REMARK  Name = VLHS-mmff94.pdb
REMARK  19 active torsions:
REMARK  status: ('A' for Active; 'I' for Inactive)
REMARK    1  A    between atoms: _1  and  _2
REMARK    2  A    between atoms: _2  and  _3
REMARK    3  A    between atoms: _2  and  _5
REMARK    4  A    between atoms: _5  and  _6
REMARK    5  A    between atoms: _5  and  _7
REMARK    6  A    between atoms: _17  and  _18
REMARK    7  A    between atoms: _18  and  _19
REMARK    8  A    between atoms: _18  and  _21
REMARK    9  A    between atoms: _21  and  _22
REMARK   10  A    between atoms: _22  and  _23
REMARK   11  A    between atoms: _22  and  _24
REMARK   12  A    between atoms: _36  and  _37
REMARK   13  A    between atoms: _37  and  _38
REMARK   14  A    between atoms: _37  and  _40
REMARK   15  A    between atoms: _40  and  _41
REMARK   16  A    between atoms: _53  and  _54
REMARK   17  A    between atoms: _54  and  _55
REMARK   18  A    between atoms: _54  and  _57
REMARK   19  A    between atoms: _57  and  _58
REMARK                            x       y       z     vdW  Elec       q    Type
REMARK                         _______ _______ _______ _____ _____    ______ ____
ROOT
ATOM      1  C   LEU A   2       9.845  -1.370  23.062  0.00  0.00    +0.234 C 
ATOM      2  O   LEU A   2      10.787  -2.051  22.651  0.00  0.00    -0.274 OA
ATOM      3  N   HIS A   3       9.039  -1.776  24.097  0.00  0.00    -0.302 N 
ATOM      4  H   HIS A   3       8.244  -1.221  24.403  0.00  0.00    +0.150 HD
ENDROOT
BRANCH   1   5
ATOM      5  CA  LEU A   2       9.492  -0.007  22.438  0.00  0.00    +0.159 C 
BRANCH   5   7
ATOM      6  C   VAL A   1       7.456  -0.717  21.209  0.00  0.00    +0.231 C 
ATOM      7  N   LEU A   2       8.766  -0.307  21.206  0.00  0.00    -0.303 N 
ATOM      8  H   LEU A   2       9.115   0.168  20.377  0.00  0.00    +0.149 HD
ATOM      9  O   VAL A   1       6.855  -1.055  22.227  0.00  0.00    -0.274 OA
BRANCH   6  10
ATOM     10  CA  VAL A   1       6.804  -0.767  19.805  0.00  0.00    +0.140 C 
BRANCH  10  11
ATOM     11  N   VAL A   1       5.501  -1.453  19.938  0.00  0.00    -0.320 NA
ATOM     12  H1  VAL A   1       4.825  -0.987  19.331  0.00  0.00    +0.119 HD
ATOM     13  H2  VAL A   1       5.606  -2.388  19.531  0.00  0.00    +0.119 HD
ENDBRANCH  10  11
BRANCH  10  14
ATOM     14  CB  VAL A   1       6.637   0.660  19.235  0.00  0.00    +0.009 C 
ATOM     15  CG2 VAL A   1       5.845   0.648  17.921  0.00  0.00    +0.009 C 
ATOM     16  CG1 VAL A   1       5.934   1.592  20.229  0.00  0.00    +0.009 C 
ENDBRANCH  10  14
ENDBRANCH   6  10
ENDBRANCH   5   7
BRANCH   5  17
ATOM     17  CB  LEU A   2       8.629   0.816  23.405  0.00  0.00    +0.034 C 
BRANCH  17  18
ATOM     18  CG  LEU A   2       9.423   1.798  24.288  0.00  0.00    -0.015 C 
ATOM     19  CD2 LEU A   2       8.517   2.840  24.949  0.00  0.00    +0.007 C 
ATOM     20  CD1 LEU A   2      10.488   2.505  23.446  0.00  0.00    +0.007 C 
ENDBRANCH  17  18
ENDBRANCH   5  17
ENDBRANCH   1   5
BRANCH   3  21
ATOM     21  CA  HIS A   3       9.240  -3.070  24.754  0.00  0.00    +0.165 C 
BRANCH  21  22
ATOM     22  C   HIS A   3       8.307  -4.091  24.083  0.00  0.00    +0.234 C 
ATOM     23  O   HIS A   3       8.656  -5.257  23.886  0.00  0.00    -0.274 OA
ATOM     24  N   SER A   4       7.056  -3.631  23.741  0.00  0.00    -0.302 N 
ATOM     25  H   SER A   4       6.900  -2.614  23.708  0.00  0.00    +0.150 HD
BRANCH  24  26
ATOM     26  CA  SER A   4       6.117  -4.479  23.007  0.00  0.00    +0.161 C 
BRANCH  26  27
ATOM     27  C   SER A   4       6.508  -4.552  21.537  0.00  0.00    +0.247 C 
ATOM     28  O   SER A   4       5.718  -4.396  20.608  0.00  0.00    -0.299 OA
ENDBRANCH  26  27
BRANCH  26  29
ATOM     29  CB  SER A   4       4.669  -3.978  23.112  0.00  0.00    +0.185 C 
BRANCH  29  30
ATOM     30  OG  SER A   4       3.745  -5.009  22.767  0.00  0.00    -0.393 OA
ATOM     31  H   SER A   4       3.380  -5.344  23.607  0.00  0.00    +0.209 HD
ENDBRANCH  29  30
ENDBRANCH  26  29
ENDBRANCH  24  26
ENDBRANCH  21  22
BRANCH  21  32
ATOM     32  CB  HIS A   3       8.962  -2.991  26.259  0.00  0.00    +0.088 C 
BRANCH  32  33
ATOM     33  CG  HIS A   3       8.311  -1.702  26.609  0.00  0.00    +0.061 A 
ATOM     34  ND1 HIS A   3       6.987  -1.491  26.307  0.00  0.00    -0.241 NA
ATOM     35  CE1 HIS A   3       6.715  -0.292  26.771  0.00  0.00    +0.196 A 
ATOM     36  NE2 HIS A   3       7.803   0.271  27.378  0.00  0.00    -0.351 N 
ATOM     37  HE2 HIS A   3       7.833   1.177  27.826  0.00  0.00    +0.166 HD
ATOM     38  CD2 HIS A   3       8.833  -0.621  27.283  0.00  0.00    +0.107 A 
ENDBRANCH  32  33
ENDBRANCH  21  32
ENDBRANCH   3  21
TORSDOF 15
ENDMDL
MODEL 4
REMARK VINA RESULT:      -6.5      2.287      5.271
REMARK  Name = VLHS-mmff94.pdb
REMARK  19 active torsions:
REMARK  status: ('A' for Active; 'I' for Inactive)
REMARK    1  A    between atoms: _1  and  _2
REMARK    2  A    between atoms: _2  and  _3
REMARK    3  A    between atoms: _2  and  _5
REMARK    4  A    between atoms: _5  and  _6
REMARK    5  A    between atoms: _5  and  _7
REMARK    6  A    between atoms: _17  and  _18
REMARK    7  A    between atoms: _18  and  _19
REMARK    8  A    between atoms: _18  and  _21
REMARK    9  A    between atoms: _21  and  _22
REMARK   10  A    between atoms: _22  and  _23
REMARK   11  A    between atoms: _22  and  _24
REMARK   12  A    between atoms: _36  and  _37
REMARK   13  A    between atoms: _37  and  _38
REMARK   14  A    between atoms: _37  and  _40
REMARK   15  A    between atoms: _40  and  _41
REMARK   16  A    between atoms: _53  and  _54
REMARK   17  A    between atoms: _54  and  _55
REMARK   18  A    between atoms: _54  and  _57
REMARK   19  A    between atoms: _57  and  _58
REMARK                            x       y       z     vdW  Elec       q    Type
REMARK                         _______ _______ _______ _____ _____    ______ ____
ROOT
ATOM      1  C   LEU A   2       8.453  -0.793  21.645  0.00  0.00    +0.234 C 
ATOM      2  O   LEU A   2       9.650  -0.818  21.351  0.00  0.00    -0.274 OA
ATOM      3  N   HIS A   3       7.931  -1.543  22.670  0.00  0.00    -0.302 N 
ATOM      4  H   HIS A   3       6.936  -1.541  22.879  0.00  0.00    +0.150 HD
ENDROOT
BRANCH   1   5
ATOM      5  CA  LEU A   2       7.443   0.078  20.876  0.00  0.00    +0.159 C 
BRANCH   5   7
ATOM      6  C   VAL A   1       7.033   1.886  22.526  0.00  0.00    +0.231 C 
ATOM      7  N   LEU A   2       7.629   1.439  21.373  0.00  0.00    -0.303 N 
ATOM      8  H   LEU A   2       8.494   1.888  21.078  0.00  0.00    +0.149 HD
ATOM      9  O   VAL A   1       6.153   1.265  23.117  0.00  0.00    -0.274 OA
BRANCH   6  10
ATOM     10  CA  VAL A   1       7.531   3.274  23.000  0.00  0.00    +0.140 C 
BRANCH  10  11
ATOM     11  N   VAL A   1       8.917   3.444  22.516  0.00  0.00    -0.320 NA
ATOM     12  H1  VAL A   1       9.050   2.848  21.697  0.00  0.00    +0.119 HD
ATOM     13  H2  VAL A   1       8.997   4.399  22.152  0.00  0.00    +0.119 HD
ENDBRANCH  10  11
BRANCH  10  14
ATOM     14  CB  VAL A   1       6.603   4.392  22.470  0.00  0.00    +0.009 C 
ATOM     15  CG2 VAL A   1       5.544   4.780  23.510  0.00  0.00    +0.009 C 
ATOM     16  CG1 VAL A   1       7.393   5.646  22.074  0.00  0.00    +0.009 C 
ENDBRANCH  10  14
ENDBRANCH   6  10
ENDBRANCH   5   7
BRANCH   5  17
ATOM     17  CB  LEU A   2       7.708  -0.003  19.366  0.00  0.00    +0.034 C 
BRANCH  17  18
ATOM     18  CG  LEU A   2       6.471  -0.367  18.521  0.00  0.00    -0.015 C 
ATOM     19  CD2 LEU A   2       5.620   0.861  18.188  0.00  0.00    +0.007 C 
ATOM     20  CD1 LEU A   2       5.618  -1.394  19.270  0.00  0.00    +0.007 C 
ENDBRANCH  17  18
ENDBRANCH   5  17
ENDBRANCH   1   5
BRANCH   3  21
ATOM     21  CA  HIS A   3       8.774  -2.446  23.457  0.00  0.00    +0.165 C 
BRANCH  21  22
ATOM     22  C   HIS A   3       8.113  -3.834  23.453  0.00  0.00    +0.234 C 
ATOM     23  O   HIS A   3       8.694  -4.829  23.891  0.00  0.00    -0.274 OA
ATOM     24  N   SER A   4       6.832  -3.891  22.956  0.00  0.00    -0.302 N 
ATOM     25  H   SER A   4       6.488  -3.099  22.396  0.00  0.00    +0.150 HD
BRANCH  24  26
ATOM     26  CA  SER A   4       6.138  -5.170  22.807  0.00  0.00    +0.161 C 
BRANCH  26  27
ATOM     27  C   SER A   4       6.348  -5.726  21.405  0.00  0.00    +0.247 C 
ATOM     28  O   SER A   4       5.939  -5.179  20.383  0.00  0.00    -0.299 OA
ENDBRANCH  26  27
BRANCH  26  29
ATOM     29  CB  SER A   4       4.631  -5.054  23.076  0.00  0.00    +0.185 C 
BRANCH  29  30
ATOM     30  OG  SER A   4       3.915  -6.114  22.444  0.00  0.00    -0.393 OA
ATOM     31  H   SER A   4       2.998  -5.800  22.335  0.00  0.00    +0.209 HD
ENDBRANCH  29  30
ENDBRANCH  26  29
ENDBRANCH  24  26
ENDBRANCH  21  22
BRANCH  21  32
ATOM     32  CB  HIS A   3       8.961  -1.940  24.893  0.00  0.00    +0.088 C 
BRANCH  32  33
ATOM     33  CG  HIS A   3       9.444  -0.535  24.898  0.00  0.00    +0.061 A 
ATOM     34  ND1 HIS A   3      10.656  -0.218  24.335  0.00  0.00    -0.241 NA
ATOM     35  CE1 HIS A   3      10.768   1.085  24.471  0.00  0.00    +0.196 A 
ATOM     36  NE2 HIS A   3       9.670   1.623  25.081  0.00  0.00    -0.351 N 
ATOM     37  HE2 HIS A   3       9.518   2.604  25.277  0.00  0.00    +0.166 HD
ATOM     38  CD2 HIS A   3       8.812   0.598  25.360  0.00  0.00    +0.107 A 
ENDBRANCH  32  33
ENDBRANCH  21  32
ENDBRANCH   3  21
TORSDOF 15
ENDMDL
MODEL 5
REMARK VINA RESULT:      -6.5      1.999      5.288
REMARK  Name = VLHS-mmff94.pdb
REMARK  19 active torsions:
REMARK  status: ('A' for Active; 'I' for Inactive)
REMARK    1  A    between atoms: _1  and  _2
REMARK    2  A    between atoms: _2  and  _3
REMARK    3  A    between atoms: _2  and  _5
REMARK    4  A    between atoms: _5  and  _6
REMARK    5  A    between atoms: _5  and  _7
REMARK    6  A    between atoms: _17  and  _18
REMARK    7  A    between atoms: _18  and  _19
REMARK    8  A    between atoms: _18  and  _21
REMARK    9  A    between atoms: _21  and  _22
REMARK   10  A    between atoms: _22  and  _23
REMARK   11  A    between atoms: _22  and  _24
REMARK   12  A    between atoms: _36  and  _37
REMARK   13  A    between atoms: _37  and  _38
REMARK   14  A    between atoms: _37  and  _40
REMARK   15  A    between atoms: _40  and  _41
REMARK   16  A    between atoms: _53  and  _54
REMARK   17  A    between atoms: _54  and  _55
REMARK   18  A    between atoms: _54  and  _57
REMARK   19  A    between atoms: _57  and  _58
REMARK                            x       y       z     vdW  Elec       q    Type
REMARK                         _______ _______ _______ _____ _____    ______ ____
ROOT
ATOM      1  C   LEU A   2       6.119  -2.016  23.908  0.00  0.00    +0.234 C 
ATOM      2  O   LEU A   2       5.093  -1.827  24.564  0.00  0.00    -0.274 OA
ATOM      3  N   HIS A   3       7.373  -1.811  24.426  0.00  0.00    -0.302 N 
ATOM      4  H   HIS A   3       8.211  -1.936  23.863  0.00  0.00    +0.150 HD
ENDROOT
BRANCH   1   5
ATOM      5  CA  LEU A   2       6.073  -2.490  22.443  0.00  0.00    +0.159 C 
BRANCH   5   7
ATOM      6  C   VAL A   1       6.104  -1.163  20.345  0.00  0.00    +0.231 C 
ATOM      7  N   LEU A   2       6.518  -1.353  21.641  0.00  0.00    -0.303 N 
ATOM      8  H   LEU A   2       6.796  -0.534  22.177  0.00  0.00    +0.149 HD
ATOM      9  O   VAL A   1       5.504  -2.016  19.695  0.00  0.00    -0.274 OA
BRANCH   6  10
ATOM     10  CA  VAL A   1       6.504   0.208  19.746  0.00  0.00    +0.140 C 
BRANCH  10  11
ATOM     11  N   VAL A   1       7.858   0.070  19.169  0.00  0.00    -0.320 NA
ATOM     12  H1  VAL A   1       8.210  -0.865  19.387  0.00  0.00    +0.119 HD
ATOM     13  H2  VAL A   1       7.755   0.070  18.149  0.00  0.00    +0.119 HD
ENDBRANCH  10  11
BRANCH  10  14
ATOM     14  CB  VAL A   1       5.476   0.654  18.681  0.00  0.00    +0.009 C 
ATOM     15  CG2 VAL A   1       4.444   1.623  19.272  0.00  0.00    +0.009 C 
ATOM     16  CG1 VAL A   1       6.155   1.324  17.480  0.00  0.00    +0.009 C 
ENDBRANCH  10  14
ENDBRANCH   6  10
ENDBRANCH   5   7
BRANCH   5  17
ATOM     17  CB  LEU A   2       6.992  -3.703  22.244  0.00  0.00    +0.034 C 
BRANCH  17  18
ATOM     18  CG  LEU A   2       6.261  -4.994  21.825  0.00  0.00    -0.015 C 
ATOM     19  CD2 LEU A   2       5.025  -5.261  22.686  0.00  0.00    +0.007 C 
ATOM     20  CD1 LEU A   2       7.219  -6.184  21.921  0.00  0.00    +0.007 C 
ENDBRANCH  17  18
ENDBRANCH   5  17
ENDBRANCH   1   5
BRANCH   3  21
ATOM     21  CA  HIS A   3       7.560  -1.323  25.794  0.00  0.00    +0.165 C 
BRANCH  21  22
ATOM     22  C   HIS A   3       7.930   0.168  25.718  0.00  0.00    +0.234 C 
ATOM     23  O   HIS A   3       7.522   0.980  26.551  0.00  0.00    -0.274 OA
ATOM     24  N   SER A   4       8.761   0.530  24.684  0.00  0.00    -0.302 N 
ATOM     25  H   SER A   4       8.878  -0.123  23.897  0.00  0.00    +0.150 HD
BRANCH  24  26
ATOM     26  CA  SER A   4       9.101   1.933  24.448  0.00  0.00    +0.161 C 
BRANCH  26  27
ATOM     27  C   SER A   4       8.077   2.578  23.524  0.00  0.00    +0.247 C 
ATOM     28  O   SER A   4       7.652   2.052  22.498  0.00  0.00    -0.299 OA
ENDBRANCH  26  27
BRANCH  26  29
ATOM     29  CB  SER A   4      10.499   2.102  23.836  0.00  0.00    +0.185 C 
BRANCH  29  30
ATOM     30  OG  SER A   4      10.437   2.827  22.609  0.00  0.00    -0.393 OA
ATOM     31  H   SER A   4       9.513   2.765  22.299  0.00  0.00    +0.209 HD
ENDBRANCH  29  30
ENDBRANCH  26  29
ENDBRANCH  24  26
ENDBRANCH  21  22
BRANCH  21  32
ATOM     32  CB  HIS A   3       8.644  -2.112  26.536  0.00  0.00    +0.088 C 
BRANCH  32  33
ATOM     33  CG  HIS A   3       8.576  -3.555  26.190  0.00  0.00    +0.061 A 
ATOM     34  ND1 HIS A   3       9.303  -4.049  25.134  0.00  0.00    -0.241 NA
ATOM     35  CE1 HIS A   3       9.055  -5.339  25.118  0.00  0.00    +0.196 A 
ATOM     36  NE2 HIS A   3       8.213  -5.702  26.133  0.00  0.00    -0.351 N 
ATOM     37  HE2 HIS A   3       7.893  -6.640  26.335  0.00  0.00    +0.166 HD
ATOM     38  CD2 HIS A   3       7.899  -4.570  26.828  0.00  0.00    +0.107 A 
ENDBRANCH  32  33
ENDBRANCH  21  32
ENDBRANCH   3  21
TORSDOF 15
ENDMDL
MODEL 6
REMARK VINA RESULT:      -6.5      2.199      4.581
REMARK  Name = VLHS-mmff94.pdb
REMARK  19 active torsions:
REMARK  status: ('A' for Active; 'I' for Inactive)
REMARK    1  A    between atoms: _1  and  _2
REMARK    2  A    between atoms: _2  and  _3
REMARK    3  A    between atoms: _2  and  _5
REMARK    4  A    between atoms: _5  and  _6
REMARK    5  A    between atoms: _5  and  _7
REMARK    6  A    between atoms: _17  and  _18
REMARK    7  A    between atoms: _18  and  _19
REMARK    8  A    between atoms: _18  and  _21
REMARK    9  A    between atoms: _21  and  _22
REMARK   10  A    between atoms: _22  and  _23
REMARK   11  A    between atoms: _22  and  _24
REMARK   12  A    between atoms: _36  and  _37
REMARK   13  A    between atoms: _37  and  _38
REMARK   14  A    between atoms: _37  and  _40
REMARK   15  A    between atoms: _40  and  _41
REMARK   16  A    between atoms: _53  and  _54
REMARK   17  A    between atoms: _54  and  _55
REMARK   18  A    between atoms: _54  and  _57
REMARK   19  A    between atoms: _57  and  _58
REMARK                            x       y       z     vdW  Elec       q    Type
REMARK                         _______ _______ _______ _____ _____    ______ ____
ROOT
ATOM      1  C   LEU A   2       9.622  -2.041  23.642  0.00  0.00    +0.234 C 
ATOM      2  O   LEU A   2      10.593  -2.511  23.046  0.00  0.00    -0.274 OA
ATOM      3  N   HIS A   3       8.939  -2.740  24.605  0.00  0.00    -0.302 N 
ATOM      4  H   HIS A   3       8.118  -2.354  25.063  0.00  0.00    +0.150 HD
ENDROOT
BRANCH   1   5
ATOM      5  CA  LEU A   2       9.090  -0.626  23.343  0.00  0.00    +0.159 C 
BRANCH   5   7
ATOM      6  C   VAL A   1       8.085  -0.033  21.152  0.00  0.00    +0.231 C 
ATOM      7  N   LEU A   2       8.083  -0.791  22.297  0.00  0.00    -0.303 N 
ATOM      8  H   LEU A   2       7.654  -1.713  22.258  0.00  0.00    +0.149 HD
ATOM      9  O   VAL A   1       8.790   0.962  21.001  0.00  0.00    -0.274 OA
BRANCH   6  10
ATOM     10  CA  VAL A   1       7.079  -0.509  20.074  0.00  0.00    +0.140 C 
BRANCH  10  11
ATOM     11  N   VAL A   1       5.968  -1.196  20.768  0.00  0.00    -0.320 NA
ATOM     12  H1  VAL A   1       5.196  -0.535  20.876  0.00  0.00    +0.119 HD
ATOM     13  H2  VAL A   1       5.606  -1.910  20.129  0.00  0.00    +0.119 HD
ENDBRANCH  10  11
BRANCH  10  14
ATOM     14  CB  VAL A   1       6.572   0.689  19.239  0.00  0.00    +0.009 C 
ATOM     15  CG2 VAL A   1       5.808   0.219  17.994  0.00  0.00    +0.009 C 
ATOM     16  CG1 VAL A   1       5.663   1.611  20.061  0.00  0.00    +0.009 C 
ENDBRANCH  10  14
ENDBRANCH   6  10
ENDBRANCH   5   7
BRANCH   5  17
ATOM     17  CB  LEU A   2       8.481  -0.006  24.608  0.00  0.00    +0.034 C 
BRANCH  17  18
ATOM     18  CG  LEU A   2       8.846   1.475  24.830  0.00  0.00    -0.015 C 
ATOM     19  CD2 LEU A   2       7.792   2.421  24.251  0.00  0.00    +0.007 C 
ATOM     20  CD1 LEU A   2      10.206   1.772  24.194  0.00  0.00    +0.007 C 
ENDBRANCH  17  18
ENDBRANCH   5  17
ENDBRANCH   1   5
BRANCH   3  21
ATOM     21  CA  HIS A   3       9.315  -4.111  24.959  0.00  0.00    +0.165 C 
BRANCH  21  22
ATOM     22  C   HIS A   3       8.447  -5.070  24.127  0.00  0.00    +0.234 C 
ATOM     23  O   HIS A   3       8.849  -6.188  23.798  0.00  0.00    -0.274 OA
ATOM     24  N   SER A   4       7.192  -4.613  23.797  0.00  0.00    -0.302 N 
ATOM     25  H   SER A   4       6.997  -3.607  23.887  0.00  0.00    +0.150 HD
BRANCH  24  26
ATOM     26  CA  SER A   4       6.314  -5.393  22.925  0.00  0.00    +0.161 C 
BRANCH  26  27
ATOM     27  C   SER A   4       6.363  -4.850  21.503  0.00  0.00    +0.247 C 
ATOM     28  O   SER A   4       5.606  -3.981  21.074  0.00  0.00    -0.299 OA
ENDBRANCH  26  27
BRANCH  26  29
ATOM     29  CB  SER A   4       4.856  -5.390  23.408  0.00  0.00    +0.185 C 
BRANCH  29  30
ATOM     30  OG  SER A   4       4.008  -6.066  22.481  0.00  0.00    -0.393 OA
ATOM     31  H   SER A   4       4.595  -6.589  21.902  0.00  0.00    +0.209 HD
ENDBRANCH  29  30
ENDBRANCH  26  29
ENDBRANCH  24  26
ENDBRANCH  21  22
BRANCH  21  32
ATOM     32  CB  HIS A   3       9.135  -4.381  26.457  0.00  0.00    +0.088 C 
BRANCH  32  33
ATOM     33  CG  HIS A   3       7.697  -4.354  26.829  0.00  0.00    +0.061 A 
ATOM     34  ND1 HIS A   3       6.965  -3.200  26.682  0.00  0.00    -0.241 NA
ATOM     35  CE1 HIS A   3       5.746  -3.515  27.058  0.00  0.00    +0.196 A 
ATOM     36  NE2 HIS A   3       5.656  -4.830  27.422  0.00  0.00    -0.351 N 
ATOM     37  HE2 HIS A   3       4.819  -5.307  27.729  0.00  0.00    +0.166 HD
ATOM     38  CD2 HIS A   3       6.898  -5.380  27.280  0.00  0.00    +0.107 A 
ENDBRANCH  32  33
ENDBRANCH  21  32
ENDBRANCH   3  21
TORSDOF 15
ENDMDL
MODEL 7
REMARK VINA RESULT:      -6.5      2.420      5.141
REMARK  Name = VLHS-mmff94.pdb
REMARK  19 active torsions:
REMARK  status: ('A' for Active; 'I' for Inactive)
REMARK    1  A    between atoms: _1  and  _2
REMARK    2  A    between atoms: _2  and  _3
REMARK    3  A    between atoms: _2  and  _5
REMARK    4  A    between atoms: _5  and  _6
REMARK    5  A    between atoms: _5  and  _7
REMARK    6  A    between atoms: _17  and  _18
REMARK    7  A    between atoms: _18  and  _19
REMARK    8  A    between atoms: _18  and  _21
REMARK    9  A    between atoms: _21  and  _22
REMARK   10  A    between atoms: _22  and  _23
REMARK   11  A    between atoms: _22  and  _24
REMARK   12  A    between atoms: _36  and  _37
REMARK   13  A    between atoms: _37  and  _38
REMARK   14  A    between atoms: _37  and  _40
REMARK   15  A    between atoms: _40  and  _41
REMARK   16  A    between atoms: _53  and  _54
REMARK   17  A    between atoms: _54  and  _55
REMARK   18  A    between atoms: _54  and  _57
REMARK   19  A    between atoms: _57  and  _58
REMARK                            x       y       z     vdW  Elec       q    Type
REMARK                         _______ _______ _______ _____ _____    ______ ____
ROOT
ATOM      1  C   LEU A   2       7.881  -0.691  21.722  0.00  0.00    +0.234 C 
ATOM      2  O   LEU A   2       8.925  -1.257  21.389  0.00  0.00    -0.274 OA
ATOM      3  N   HIS A   3       7.075  -1.165  22.726  0.00  0.00    -0.302 N 
ATOM      4  H   HIS A   3       6.198  -0.709  22.967  0.00  0.00    +0.150 HD
ENDROOT
BRANCH   1   5
ATOM      5  CA  LEU A   2       7.392   0.593  21.025  0.00  0.00    +0.159 C 
BRANCH   5   7
ATOM      6  C   VAL A   1       7.863   2.219  22.840  0.00  0.00    +0.231 C 
ATOM      7  N   LEU A   2       8.166   1.685  21.612  0.00  0.00    -0.303 N 
ATOM      8  H   LEU A   2       9.128   1.750  21.287  0.00  0.00    +0.149 HD
ATOM      9  O   VAL A   1       6.824   1.974  23.447  0.00  0.00    -0.274 OA
BRANCH   6  10
ATOM     10  CA  VAL A   1       8.928   3.205  23.382  0.00  0.00    +0.140 C 
BRANCH  10  11
ATOM     11  N   VAL A   1       8.645   3.430  24.815  0.00  0.00    -0.320 NA
ATOM     12  H1  VAL A   1       8.600   4.437  24.983  0.00  0.00    +0.119 HD
ATOM     13  H2  VAL A   1       7.691   3.099  24.992  0.00  0.00    +0.119 HD
ENDBRANCH  10  11
BRANCH  10  14
ATOM     14  CB  VAL A   1      10.351   2.638  23.166  0.00  0.00    +0.009 C 
ATOM     15  CG2 VAL A   1      11.420   3.721  23.365  0.00  0.00    +0.009 C 
ATOM     16  CG1 VAL A   1      10.646   1.469  24.114  0.00  0.00    +0.009 C 
ENDBRANCH  10  14
ENDBRANCH   6  10
ENDBRANCH   5   7
BRANCH   5  17
ATOM     17  CB  LEU A   2       7.622   0.500  19.510  0.00  0.00    +0.034 C 
BRANCH  17  18
ATOM     18  CG  LEU A   2       6.333   0.361  18.678  0.00  0.00    -0.015 C 
ATOM     19  CD2 LEU A   2       5.263   1.371  19.100  0.00  0.00    +0.007 C 
ATOM     20  CD1 LEU A   2       5.779  -1.059  18.815  0.00  0.00    +0.007 C 
ENDBRANCH  17  18
ENDBRANCH   5  17
ENDBRANCH   1   5
BRANCH   3  21
ATOM     21  CA  HIS A   3       7.401  -2.399  23.444  0.00  0.00    +0.165 C 
BRANCH  21  22
ATOM     22  C   HIS A   3       6.085  -3.020  23.942  0.00  0.00    +0.234 C 
ATOM     23  O   HIS A   3       5.162  -2.324  24.371  0.00  0.00    -0.274 OA
ATOM     24  N   SER A   4       5.994  -4.390  23.856  0.00  0.00    -0.302 N 
ATOM     25  H   SER A   4       6.859  -4.931  23.718  0.00  0.00    +0.150 HD
BRANCH  24  26
ATOM     26  CA  SER A   4       4.834  -5.102  24.390  0.00  0.00    +0.161 C 
BRANCH  26  27
ATOM     27  C   SER A   4       5.164  -5.707  25.748  0.00  0.00    +0.247 C 
ATOM     28  O   SER A   4       6.255  -6.194  26.035  0.00  0.00    -0.299 OA
ENDBRANCH  26  27
BRANCH  26  29
ATOM     29  CB  SER A   4       4.348  -6.217  23.454  0.00  0.00    +0.185 C 
BRANCH  29  30
ATOM     30  OG  SER A   4       4.491  -7.498  24.066  0.00  0.00    -0.393 OA
ATOM     31  H   SER A   4       3.597  -7.770  24.348  0.00  0.00    +0.209 HD
ENDBRANCH  29  30
ENDBRANCH  26  29
ENDBRANCH  24  26
ENDBRANCH  21  22
BRANCH  21  32
ATOM     32  CB  HIS A   3       8.353  -2.139  24.617  0.00  0.00    +0.088 C 
BRANCH  32  33
ATOM     33  CG  HIS A   3       8.749  -3.414  25.269  0.00  0.00    +0.061 A 
ATOM     34  ND1 HIS A   3       9.368  -4.401  24.540  0.00  0.00    -0.241 NA
ATOM     35  CE1 HIS A   3       9.613  -5.363  25.402  0.00  0.00    +0.196 A 
ATOM     36  NE2 HIS A   3       9.196  -5.029  26.660  0.00  0.00    -0.351 N 
ATOM     37  HE2 HIS A   3       9.293  -5.598  27.491  0.00  0.00    +0.166 HD
ATOM     38  CD2 HIS A   3       8.641  -3.783  26.591  0.00  0.00    +0.107 A 
ENDBRANCH  32  33
ENDBRANCH  21  32
ENDBRANCH   3  21
TORSDOF 15
ENDMDL
MODEL 8
REMARK VINA RESULT:      -6.4      2.502      5.289
REMARK  Name = VLHS-mmff94.pdb
REMARK  19 active torsions:
REMARK  status: ('A' for Active; 'I' for Inactive)
REMARK    1  A    between atoms: _1  and  _2
REMARK    2  A    between atoms: _2  and  _3
REMARK    3  A    between atoms: _2  and  _5
REMARK    4  A    between atoms: _5  and  _6
REMARK    5  A    between atoms: _5  and  _7
REMARK    6  A    between atoms: _17  and  _18
REMARK    7  A    between atoms: _18  and  _19
REMARK    8  A    between atoms: _18  and  _21
REMARK    9  A    between atoms: _21  and  _22
REMARK   10  A    between atoms: _22  and  _23
REMARK   11  A    between atoms: _22  and  _24
REMARK   12  A    between atoms: _36  and  _37
REMARK   13  A    between atoms: _37  and  _38
REMARK   14  A    between atoms: _37  and  _40
REMARK   15  A    between atoms: _40  and  _41
REMARK   16  A    between atoms: _53  and  _54
REMARK   17  A    between atoms: _54  and  _55
REMARK   18  A    between atoms: _54  and  _57
REMARK   19  A    between atoms: _57  and  _58
REMARK                            x       y       z     vdW  Elec       q    Type
REMARK                         _______ _______ _______ _____ _____    ______ ____
ROOT
ATOM      1  C   LEU A   2       8.149  -1.599  21.733  0.00  0.00    +0.234 C 
ATOM      2  O   LEU A   2       9.337  -1.921  21.686  0.00  0.00    -0.274 OA
ATOM      3  N   HIS A   3       7.175  -2.444  22.207  0.00  0.00    -0.302 N 
ATOM      4  H   HIS A   3       6.193  -2.179  22.207  0.00  0.00    +0.150 HD
ENDROOT
BRANCH   1   5
ATOM      5  CA  LEU A   2       7.658  -0.221  21.252  0.00  0.00    +0.159 C 
BRANCH   5   7
ATOM      6  C   VAL A   1       7.839   1.334  23.179  0.00  0.00    +0.231 C 
ATOM      7  N   LEU A   2       8.382   0.763  22.053  0.00  0.00    -0.303 N 
ATOM      8  H   LEU A   2       9.395   0.704  21.990  0.00  0.00    +0.149 HD
ATOM      9  O   VAL A   1       6.655   1.225  23.488  0.00  0.00    -0.274 OA
BRANCH   6  10
ATOM     10  CA  VAL A   1       8.840   2.175  24.009  0.00  0.00    +0.140 C 
BRANCH  10  11
ATOM     11  N   VAL A   1       8.629   1.847  25.435  0.00  0.00    -0.320 NA
ATOM     12  H1  VAL A   1       7.626   1.746  25.600  0.00  0.00    +0.119 HD
ATOM     13  H2  VAL A   1       9.008   0.907  25.590  0.00  0.00    +0.119 HD
ENDBRANCH  10  11
BRANCH  10  14
ATOM     14  CB  VAL A   1      10.292   1.879  23.567  0.00  0.00    +0.009 C 
ATOM     15  CG2 VAL A   1      11.124   3.165  23.484  0.00  0.00    +0.009 C 
ATOM     16  CG1 VAL A   1      10.988   0.899  24.520  0.00  0.00    +0.009 C 
ENDBRANCH  10  14
ENDBRANCH   6  10
ENDBRANCH   5   7
BRANCH   5  17
ATOM     17  CB  LEU A   2       7.950  -0.042  19.756  0.00  0.00    +0.034 C 
BRANCH  17  18
ATOM     18  CG  LEU A   2       6.802   0.606  18.956  0.00  0.00    -0.015 C 
ATOM     19  CD2 LEU A   2       5.865   1.421  19.851  0.00  0.00    +0.007 C 
ATOM     20  CD1 LEU A   2       6.003  -0.478  18.229  0.00  0.00    +0.007 C 
ENDBRANCH  17  18
ENDBRANCH   5  17
ENDBRANCH   1   5
BRANCH   3  21
ATOM     21  CA  HIS A   3       7.499  -3.799  22.659  0.00  0.00    +0.165 C 
BRANCH  21  22
ATOM     22  C   HIS A   3       6.287  -4.698  22.365  0.00  0.00    +0.234 C 
ATOM     23  O   HIS A   3       5.916  -4.929  21.212  0.00  0.00    -0.274 OA
ATOM     24  N   SER A   4       5.662  -5.244  23.462  0.00  0.00    -0.302 N 
ATOM     25  H   SER A   4       5.856  -4.841  24.388  0.00  0.00    +0.150 HD
BRANCH  24  26
ATOM     26  CA  SER A   4       4.439  -6.034  23.315  0.00  0.00    +0.161 C 
BRANCH  26  27
ATOM     27  C   SER A   4       3.216  -5.128  23.365  0.00  0.00    +0.247 C 
ATOM     28  O   SER A   4       2.142  -5.395  22.829  0.00  0.00    -0.299 OA
ENDBRANCH  26  27
BRANCH  26  29
ATOM     29  CB  SER A   4       4.304  -7.112  24.401  0.00  0.00    +0.185 C 
BRANCH  29  30
ATOM     30  OG  SER A   4       3.237  -8.010  24.100  0.00  0.00    -0.393 OA
ATOM     31  H   SER A   4       3.395  -8.330  23.192  0.00  0.00    +0.209 HD
ENDBRANCH  29  30
ENDBRANCH  26  29
ENDBRANCH  24  26
ENDBRANCH  21  22
BRANCH  21  32
ATOM     32  CB  HIS A   3       7.847  -3.832  24.151  0.00  0.00    +0.088 C 
BRANCH  32  33
ATOM     33  CG  HIS A   3       7.327  -2.623  24.841  0.00  0.00    +0.061 A 
ATOM     34  ND1 HIS A   3       5.973  -2.418  24.952  0.00  0.00    -0.241 NA
ATOM     35  CE1 HIS A   3       5.849  -1.300  25.633  0.00  0.00    +0.196 A 
ATOM     36  NE2 HIS A   3       7.067  -0.787  25.983  0.00  0.00    -0.351 N 
ATOM     37  HE2 HIS A   3       7.226   0.053  26.524  0.00  0.00    +0.166 HD
ATOM     38  CD2 HIS A   3       8.024  -1.623  25.483  0.00  0.00    +0.107 A 
ENDBRANCH  32  33
ENDBRANCH  21  32
ENDBRANCH   3  21
TORSDOF 15
ENDMDL
MODEL 9
REMARK VINA RESULT:      -6.4      2.570      6.651
REMARK  Name = VLHS-mmff94.pdb
REMARK  19 active torsions:
REMARK  status: ('A' for Active; 'I' for Inactive)
REMARK    1  A    between atoms: _1  and  _2
REMARK    2  A    between atoms: _2  and  _3
REMARK    3  A    between atoms: _2  and  _5
REMARK    4  A    between atoms: _5  and  _6
REMARK    5  A    between atoms: _5  and  _7
REMARK    6  A    between atoms: _17  and  _18
REMARK    7  A    between atoms: _18  and  _19
REMARK    8  A    between atoms: _18  and  _21
REMARK    9  A    between atoms: _21  and  _22
REMARK   10  A    between atoms: _22  and  _23
REMARK   11  A    between atoms: _22  and  _24
REMARK   12  A    between atoms: _36  and  _37
REMARK   13  A    between atoms: _37  and  _38
REMARK   14  A    between atoms: _37  and  _40
REMARK   15  A    between atoms: _40  and  _41
REMARK   16  A    between atoms: _53  and  _54
REMARK   17  A    between atoms: _54  and  _55
REMARK   18  A    between atoms: _54  and  _57
REMARK   19  A    between atoms: _57  and  _58
REMARK                            x       y       z     vdW  Elec       q    Type
REMARK                         _______ _______ _______ _____ _____    ______ ____
ROOT
ATOM      1  C   LEU A   2       8.442  -1.790  21.973  0.00  0.00    +0.234 C 
ATOM      2  O   LEU A   2       9.603  -1.737  21.563  0.00  0.00    -0.274 OA
ATOM      3  N   HIS A   3       7.628  -0.686  22.025  0.00  0.00    -0.302 N 
ATOM      4  H   HIS A   3       6.684  -0.736  22.400  0.00  0.00    +0.150 HD
ENDROOT
BRANCH   1   5
ATOM      5  CA  LEU A   2       7.814  -3.105  22.472  0.00  0.00    +0.159 C 
BRANCH   5   7
ATOM      6  C   VAL A   1       8.703  -3.415  24.769  0.00  0.00    +0.231 C 
ATOM      7  N   LEU A   2       7.714  -2.974  23.924  0.00  0.00    -0.303 N 
ATOM      8  H   LEU A   2       7.114  -2.217  24.245  0.00  0.00    +0.149 HD
ATOM      9  O   VAL A   1       9.639  -4.121  24.404  0.00  0.00    -0.274 OA
BRANCH   6  10
ATOM     10  CA  VAL A   1       8.513  -2.985  26.245  0.00  0.00    +0.140 C 
BRANCH  10  11
ATOM     11  N   VAL A   1       8.152  -1.551  26.253  0.00  0.00    -0.320 NA
ATOM     12  H1  VAL A   1       7.307  -1.433  26.815  0.00  0.00    +0.119 HD
ATOM     13  H2  VAL A   1       8.879  -1.057  26.780  0.00  0.00    +0.119 HD
ENDBRANCH  10  11
BRANCH  10  14
ATOM     14  CB  VAL A   1       7.425  -3.848  26.925  0.00  0.00    +0.009 C 
ATOM     15  CG2 VAL A   1       6.021  -3.298  26.645  0.00  0.00    +0.009 C 
ATOM     16  CG1 VAL A   1       7.488  -5.309  26.463  0.00  0.00    +0.009 C 
ENDBRANCH  10  14
ENDBRANCH   6  10
ENDBRANCH   5   7
BRANCH   5  17
ATOM     17  CB  LEU A   2       6.432  -3.312  21.836  0.00  0.00    +0.034 C 
BRANCH  17  18
ATOM     18  CG  LEU A   2       5.963  -4.779  21.797  0.00  0.00    -0.015 C 
ATOM     19  CD2 LEU A   2       5.143  -5.156  23.033  0.00  0.00    +0.007 C 
ATOM     20  CD1 LEU A   2       7.176  -5.706  21.684  0.00  0.00    +0.007 C 
ENDBRANCH  17  18
ENDBRANCH   5  17
ENDBRANCH   1   5
BRANCH   3  21
ATOM     21  CA  HIS A   3       8.113   0.635  21.619  0.00  0.00    +0.165 C 
BRANCH  21  22
ATOM     22  C   HIS A   3       8.774   1.294  22.841  0.00  0.00    +0.234 C 
ATOM     23  O   HIS A   3       8.696   0.797  23.966  0.00  0.00    -0.274 OA
ATOM     24  N   SER A   4       9.474   2.452  22.596  0.00  0.00    -0.302 N 
ATOM     25  H   SER A   4       9.314   2.943  21.706  0.00  0.00    +0.150 HD
BRANCH  24  26
ATOM     26  CA  SER A   4      10.060   3.223  23.692  0.00  0.00    +0.161 C 
BRANCH  26  27
ATOM     27  C   SER A   4       9.132   4.362  24.094  0.00  0.00    +0.247 C 
ATOM     28  O   SER A   4       8.421   4.977  23.303  0.00  0.00    -0.299 OA
ENDBRANCH  26  27
BRANCH  26  29
ATOM     29  CB  SER A   4      11.434   3.805  23.330  0.00  0.00    +0.185 C 
BRANCH  29  30
ATOM     30  OG  SER A   4      11.324   5.174  22.941  0.00  0.00    -0.393 OA
ATOM     31  H   SER A   4      10.623   5.562  23.498  0.00  0.00    +0.209 HD
ENDBRANCH  29  30
ENDBRANCH  26  29
ENDBRANCH  24  26
ENDBRANCH  21  22
BRANCH  21  32
ATOM     32  CB  HIS A   3       6.978   1.515  21.079  0.00  0.00    +0.088 C 
BRANCH  32  33
ATOM     33  CG  HIS A   3       6.403   0.931  19.840  0.00  0.00    +0.061 A 
ATOM     34  ND1 HIS A   3       7.001  -0.152  19.241  0.00  0.00    -0.241 NA
ATOM     35  CE1 HIS A   3       6.240  -0.440  18.210  0.00  0.00    +0.196 A 
ATOM     36  NE2 HIS A   3       5.164   0.400  18.129  0.00  0.00    -0.351 N 
ATOM     37  HE2 HIS A   3       4.430   0.363  17.434  0.00  0.00    +0.166 HD
ATOM     38  CD2 HIS A   3       5.254   1.282  19.167  0.00  0.00    +0.107 A 
ENDBRANCH  32  33
ENDBRANCH  21  32
ENDBRANCH   3  21
TORSDOF 15
ENDMDL
MODEL 10
REMARK VINA RESULT:      -6.4      2.992      5.747
REMARK  Name = VLHS-mmff94.pdb
REMARK  19 active torsions:
REMARK  status: ('A' for Active; 'I' for Inactive)
REMARK    1  A    between atoms: _1  and  _2
REMARK    2  A    between atoms: _2  and  _3
REMARK    3  A    between atoms: _2  and  _5
REMARK    4  A    between atoms: _5  and  _6
REMARK    5  A    between atoms: _5  and  _7
REMARK    6  A    between atoms: _17  and  _18
REMARK    7  A    between atoms: _18  and  _19
REMARK    8  A    between atoms: _18  and  _21
REMARK    9  A    between atoms: _21  and  _22
REMARK   10  A    between atoms: _22  and  _23
REMARK   11  A    between atoms: _22  and  _24
REMARK   12  A    between atoms: _36  and  _37
REMARK   13  A    between atoms: _37  and  _38
REMARK   14  A    between atoms: _37  and  _40
REMARK   15  A    between atoms: _40  and  _41
REMARK   16  A    between atoms: _53  and  _54
REMARK   17  A    between atoms: _54  and  _55
REMARK   18  A    between atoms: _54  and  _57
REMARK   19  A    between atoms: _57  and  _58
REMARK                            x       y       z     vdW  Elec       q    Type
REMARK                         _______ _______ _______ _____ _____    ______ ____
ROOT
ATOM      1  C   LEU A   2       6.120  -2.626  20.807  0.00  0.00    +0.234 C 
ATOM      2  O   LEU A   2       5.546  -3.119  19.834  0.00  0.00    -0.274 OA
ATOM      3  N   HIS A   3       6.442  -3.358  21.922  0.00  0.00    -0.302 N 
ATOM      4  H   HIS A   3       6.883  -2.931  22.732  0.00  0.00    +0.150 HD
ENDROOT
BRANCH   1   5
ATOM      5  CA  LEU A   2       6.514  -1.137  20.851  0.00  0.00    +0.159 C 
BRANCH   5   7
ATOM      6  C   VAL A   1       8.195  -0.510  22.566  0.00  0.00    +0.231 C 
ATOM      7  N   LEU A   2       7.880  -1.101  21.367  0.00  0.00    -0.303 N 
ATOM      8  H   LEU A   2       8.485  -1.846  21.030  0.00  0.00    +0.149 HD
ATOM      9  O   VAL A   1       7.414   0.199  23.197  0.00  0.00    -0.274 OA
BRANCH   6  10
ATOM     10  CA  VAL A   1       9.646  -0.772  23.040  0.00  0.00    +0.140 C 
BRANCH  10  11
ATOM     11  N   VAL A   1      10.268  -1.715  22.086  0.00  0.00    -0.320 NA
ATOM     12  H1  VAL A   1      11.058  -2.170  22.548  0.00  0.00    +0.119 HD
ATOM     13  H2  VAL A   1       9.596  -2.472  21.926  0.00  0.00    +0.119 HD
ENDBRANCH  10  11
BRANCH  10  14
ATOM     14  CB  VAL A   1      10.437   0.554  23.123  0.00  0.00    +0.009 C 
ATOM     15  CG2 VAL A   1      10.002   1.534  22.026  0.00  0.00    +0.009 C 
ATOM     16  CG1 VAL A   1      10.269   1.232  24.488  0.00  0.00    +0.009 C 
ENDBRANCH  10  14
ENDBRANCH   6  10
ENDBRANCH   5   7
BRANCH   5  17
ATOM     17  CB  LEU A   2       6.433  -0.520  19.448  0.00  0.00    +0.034 C 
BRANCH  17  18
ATOM     18  CG  LEU A   2       5.558   0.745  19.358  0.00  0.00    -0.015 C 
ATOM     19  CD2 LEU A   2       5.609   1.383  17.968  0.00  0.00    +0.007 C 
ATOM     20  CD1 LEU A   2       6.014   1.764  20.406  0.00  0.00    +0.007 C 
ENDBRANCH  17  18
ENDBRANCH   5  17
ENDBRANCH   1   5
BRANCH   3  21
ATOM     21  CA  HIS A   3       6.089  -4.776  22.028  0.00  0.00    +0.165 C 
BRANCH  21  22
ATOM     22  C   HIS A   3       4.816  -4.884  22.884  0.00  0.00    +0.234 C 
ATOM     23  O   HIS A   3       4.385  -3.925  23.528  0.00  0.00    -0.274 OA
ATOM     24  N   SER A   4       4.181  -6.104  22.867  0.00  0.00    -0.302 N 
ATOM     25  H   SER A   4       4.697  -6.921  22.514  0.00  0.00    +0.150 HD
BRANCH  24  26
ATOM     26  CA  SER A   4       3.020  -6.359  23.719  0.00  0.00    +0.161 C 
BRANCH  26  27
ATOM     27  C   SER A   4       3.314  -7.497  24.687  0.00  0.00    +0.247 C 
ATOM     28  O   SER A   4       2.749  -8.588  24.656  0.00  0.00    -0.299 OA
ENDBRANCH  26  27
BRANCH  26  29
ATOM     29  CB  SER A   4       1.763  -6.709  22.908  0.00  0.00    +0.185 C 
BRANCH  29  30
ATOM     30  OG  SER A   4       1.993  -7.841  22.071  0.00  0.00    -0.393 OA
ATOM     31  H   SER A   4       2.961  -7.953  22.019  0.00  0.00    +0.209 HD
ENDBRANCH  29  30
ENDBRANCH  26  29
ENDBRANCH  24  26
ENDBRANCH  21  22
BRANCH  21  32
ATOM     32  CB  HIS A   3       7.226  -5.600  22.643  0.00  0.00    +0.088 C 
BRANCH  32  33
ATOM     33  CG  HIS A   3       7.730  -4.959  23.885  0.00  0.00    +0.061 A 
ATOM     34  ND1 HIS A   3       8.742  -4.030  23.823  0.00  0.00    -0.241 NA
ATOM     35  CE1 HIS A   3       8.924  -3.637  25.064  0.00  0.00    +0.196 A 
ATOM     36  NE2 HIS A   3       8.059  -4.259  25.921  0.00  0.00    -0.351 N 
ATOM     37  HE2 HIS A   3       7.996  -4.107  26.919  0.00  0.00    +0.166 HD
ATOM     38  CD2 HIS A   3       7.287  -5.108  25.180  0.00  0.00    +0.107 A 
ENDBRANCH  32  33
ENDBRANCH  21  32
ENDBRANCH   3  21
TORSDOF 15
ENDMDL
MODEL 11
REMARK VINA RESULT:      -6.3      2.157      4.921
REMARK  Name = VLHS-mmff94.pdb
REMARK  19 active torsions:
REMARK  status: ('A' for Active; 'I' for Inactive)
REMARK    1  A    between atoms: _1  and  _2
REMARK    2  A    between atoms: _2  and  _3
REMARK    3  A    between atoms: _2  and  _5
REMARK    4  A    between atoms: _5  and  _6
REMARK    5  A    between atoms: _5  and  _7
REMARK    6  A    between atoms: _17  and  _18
REMARK    7  A    between atoms: _18  and  _19
REMARK    8  A    between atoms: _18  and  _21
REMARK    9  A    between atoms: _21  and  _22
REMARK   10  A    between atoms: _22  and  _23
REMARK   11  A    between atoms: _22  and  _24
REMARK   12  A    between atoms: _36  and  _37
REMARK   13  A    between atoms: _37  and  _38
REMARK   14  A    between atoms: _37  and  _40
REMARK   15  A    between atoms: _40  and  _41
REMARK   16  A    between atoms: _53  and  _54
REMARK   17  A    between atoms: _54  and  _55
REMARK   18  A    between atoms: _54  and  _57
REMARK   19  A    between atoms: _57  and  _58
REMARK                            x       y       z     vdW  Elec       q    Type
REMARK                         _______ _______ _______ _____ _____    ______ ____
ROOT
ATOM      1  C   LEU A   2       8.732  -0.405  21.651  0.00  0.00    +0.234 C 
ATOM      2  O   LEU A   2       9.933  -0.163  21.509  0.00  0.00    -0.274 OA
ATOM      3  N   HIS A   3       8.273  -1.371  22.511  0.00  0.00    -0.302 N 
ATOM      4  H   HIS A   3       7.282  -1.585  22.592  0.00  0.00    +0.150 HD
ENDROOT
BRANCH   1   5
ATOM      5  CA  LEU A   2       7.649   0.355  20.862  0.00  0.00    +0.159 C 
BRANCH   5   7
ATOM      6  C   VAL A   1       7.197   2.457  22.102  0.00  0.00    +0.231 C 
ATOM      7  N   LEU A   2       7.882   1.773  21.128  0.00  0.00    -0.303 N 
ATOM      8  H   LEU A   2       8.805   2.111  20.867  0.00  0.00    +0.149 HD
ATOM      9  O   VAL A   1       6.212   2.005  22.682  0.00  0.00    -0.274 OA
BRANCH   6  10
ATOM     10  CA  VAL A   1       7.742   3.880  22.379  0.00  0.00    +0.140 C 
BRANCH  10  11
ATOM     11  N   VAL A   1       6.669   4.844  22.054  0.00  0.00    -0.320 NA
ATOM     12  H1  VAL A   1       6.648   5.563  22.780  0.00  0.00    +0.119 HD
ATOM     13  H2  VAL A   1       6.957   5.346  21.208  0.00  0.00    +0.119 HD
ENDBRANCH  10  11
BRANCH  10  14
ATOM     14  CB  VAL A   1       8.195   4.010  23.852  0.00  0.00    +0.009 C 
ATOM     15  CG2 VAL A   1       9.238   2.944  24.212  0.00  0.00    +0.009 C 
ATOM     16  CG1 VAL A   1       8.779   5.396  24.147  0.00  0.00    +0.009 C 
ENDBRANCH  10  14
ENDBRANCH   6  10
ENDBRANCH   5   7
BRANCH   5  17
ATOM     17  CB  LEU A   2       7.763   0.045  19.363  0.00  0.00    +0.034 C 
BRANCH  17  18
ATOM     18  CG  LEU A   2       6.431  -0.346  18.691  0.00  0.00    -0.015 C 
ATOM     19  CD2 LEU A   2       5.510   0.860  18.495  0.00  0.00    +0.007 C 
ATOM     20  CD1 LEU A   2       5.717  -1.403  19.536  0.00  0.00    +0.007 C 
ENDBRANCH  17  18
ENDBRANCH   5  17
ENDBRANCH   1   5
BRANCH   3  21
ATOM     21  CA  HIS A   3       9.197  -2.195  23.293  0.00  0.00    +0.165 C 
BRANCH  21  22
ATOM     22  C   HIS A   3       8.556  -3.579  23.480  0.00  0.00    +0.234 C 
ATOM     23  O   HIS A   3       9.058  -4.433  24.214  0.00  0.00    -0.274 OA
ATOM     24  N   SER A   4       7.380  -3.795  22.799  0.00  0.00    -0.302 N 
ATOM     25  H   SER A   4       7.133  -3.156  22.032  0.00  0.00    +0.150 HD
BRANCH  24  26
ATOM     26  CA  SER A   4       6.730  -5.106  22.818  0.00  0.00    +0.161 C 
BRANCH  26  27
ATOM     27  C   SER A   4       6.687  -5.695  21.415  0.00  0.00    +0.247 C 
ATOM     28  O   SER A   4       5.982  -5.256  20.508  0.00  0.00    -0.299 OA
ENDBRANCH  26  27
BRANCH  26  29
ATOM     29  CB  SER A   4       5.300  -5.043  23.375  0.00  0.00    +0.185 C 
BRANCH  29  30
ATOM     30  OG  SER A   4       4.482  -4.180  22.588  0.00  0.00    -0.393 OA
ATOM     31  H   SER A   4       4.049  -3.566  23.211  0.00  0.00    +0.209 HD
ENDBRANCH  29  30
ENDBRANCH  26  29
ENDBRANCH  24  26
ENDBRANCH  21  22
BRANCH  21  32
ATOM     32  CB  HIS A   3       9.516  -1.559  24.651  0.00  0.00    +0.088 C 
BRANCH  32  33
ATOM     33  CG  HIS A   3       8.268  -1.260  25.399  0.00  0.00    +0.061 A 
ATOM     34  ND1 HIS A   3       7.484  -0.190  25.040  0.00  0.00    -0.241 NA
ATOM     35  CE1 HIS A   3       6.458  -0.224  25.860  0.00  0.00    +0.196 A 
ATOM     36  NE2 HIS A   3       6.537  -1.283  26.720  0.00  0.00    -0.351 N 
ATOM     37  HE2 HIS A   3       5.857  -1.528  27.428  0.00  0.00    +0.166 HD
ATOM     38  CD2 HIS A   3       7.690  -1.957  26.437  0.00  0.00    +0.107 A 
ENDBRANCH  32  33
ENDBRANCH  21  32
ENDBRANCH   3  21
TORSDOF 15
ENDMDL
MODEL 12
REMARK VINA RESULT:      -6.3      2.361      5.231
REMARK  Name = VLHS-mmff94.pdb
REMARK  19 active torsions:
REMARK  status: ('A' for Active; 'I' for Inactive)
REMARK    1  A    between atoms: _1  and  _2
REMARK    2  A    between atoms: _2  and  _3
REMARK    3  A    between atoms: _2  and  _5
REMARK    4  A    between atoms: _5  and  _6
REMARK    5  A    between atoms: _5  and  _7
REMARK    6  A    between atoms: _17  and  _18
REMARK    7  A    between atoms: _18  and  _19
REMARK    8  A    between atoms: _18  and  _21
REMARK    9  A    between atoms: _21  and  _22
REMARK   10  A    between atoms: _22  and  _23
REMARK   11  A    between atoms: _22  and  _24
REMARK   12  A    between atoms: _36  and  _37
REMARK   13  A    between atoms: _37  and  _38
REMARK   14  A    between atoms: _37  and  _40
REMARK   15  A    between atoms: _40  and  _41
REMARK   16  A    between atoms: _53  and  _54
REMARK   17  A    between atoms: _54  and  _55
REMARK   18  A    between atoms: _54  and  _57
REMARK   19  A    between atoms: _57  and  _58
REMARK                            x       y       z     vdW  Elec       q    Type
REMARK                         _______ _______ _______ _____ _____    ______ ____
ROOT
ATOM      1  C   LEU A   2       5.995  -2.685  24.067  0.00  0.00    +0.234 C 
ATOM      2  O   LEU A   2       5.016  -2.505  24.794  0.00  0.00    -0.274 OA
ATOM      3  N   HIS A   3       7.273  -2.773  24.561  0.00  0.00    -0.302 N 
ATOM      4  H   HIS A   3       8.076  -2.886  23.948  0.00  0.00    +0.150 HD
ENDROOT
BRANCH   1   5
ATOM      5  CA  LEU A   2       5.862  -2.817  22.538  0.00  0.00    +0.159 C 
BRANCH   5   7
ATOM      6  C   VAL A   1       7.258  -0.900  21.805  0.00  0.00    +0.231 C 
ATOM      7  N   LEU A   2       6.023  -1.467  22.005  0.00  0.00    -0.303 N 
ATOM      8  H   LEU A   2       5.249  -1.138  21.432  0.00  0.00    +0.149 HD
ATOM      9  O   VAL A   1       8.302  -1.385  22.234  0.00  0.00    -0.274 OA
BRANCH   6  10
ATOM     10  CA  VAL A   1       7.223   0.439  21.028  0.00  0.00    +0.140 C 
BRANCH  10  11
ATOM     11  N   VAL A   1       8.620   0.870  20.810  0.00  0.00    -0.320 NA
ATOM     12  H1  VAL A   1       8.869   1.544  21.536  0.00  0.00    +0.119 HD
ATOM     13  H2  VAL A   1       9.220   0.061  20.998  0.00  0.00    +0.119 HD
ENDBRANCH  10  11
BRANCH  10  14
ATOM     14  CB  VAL A   1       6.466   0.269  19.690  0.00  0.00    +0.009 C 
ATOM     15  CG2 VAL A   1       5.510   1.442  19.436  0.00  0.00    +0.009 C 
ATOM     16  CG1 VAL A   1       7.430   0.149  18.503  0.00  0.00    +0.009 C 
ENDBRANCH  10  14
ENDBRANCH   6  10
ENDBRANCH   5   7
BRANCH   5  17
ATOM     17  CB  LEU A   2       6.938  -3.764  21.988  0.00  0.00    +0.034 C 
BRANCH  17  18
ATOM     18  CG  LEU A   2       6.585  -5.260  22.097  0.00  0.00    -0.015 C 
ATOM     19  CD2 LEU A   2       7.756  -6.091  22.628  0.00  0.00    +0.007 C 
ATOM     20  CD1 LEU A   2       6.161  -5.792  20.726  0.00  0.00    +0.007 C 
ENDBRANCH  17  18
ENDBRANCH   5  17
ENDBRANCH   1   5
BRANCH   3  21
ATOM     21  CA  HIS A   3       7.546  -2.624  25.993  0.00  0.00    +0.165 C 
BRANCH  21  22
ATOM     22  C   HIS A   3       8.449  -1.393  26.178  0.00  0.00    +0.234 C 
ATOM     23  O   HIS A   3       8.897  -1.079  27.282  0.00  0.00    -0.274 OA
ATOM     24  N   SER A   4       8.742  -0.684  25.036  0.00  0.00    -0.302 N 
ATOM     25  H   SER A   4       8.165  -0.843  24.199  0.00  0.00    +0.150 HD
BRANCH  24  26
ATOM     26  CA  SER A   4       9.507   0.561  25.100  0.00  0.00    +0.161 C 
BRANCH  26  27
ATOM     27  C   SER A   4       8.674   1.721  24.569  0.00  0.00    +0.247 C 
ATOM     28  O   SER A   4       8.913   2.312  23.519  0.00  0.00    -0.299 OA
ENDBRANCH  26  27
BRANCH  26  29
ATOM     29  CB  SER A   4      10.818   0.485  24.304  0.00  0.00    +0.185 C 
BRANCH  29  30
ATOM     30  OG  SER A   4      10.591  -0.026  22.992  0.00  0.00    -0.393 OA
ATOM     31  H   SER A   4       9.797  -0.591  23.050  0.00  0.00    +0.209 HD
ENDBRANCH  29  30
ENDBRANCH  26  29
ENDBRANCH  24  26
ENDBRANCH  21  22
BRANCH  21  32
ATOM     32  CB  HIS A   3       8.212  -3.876  26.577  0.00  0.00    +0.088 C 
BRANCH  32  33
ATOM     33  CG  HIS A   3       7.198  -4.912  26.900  0.00  0.00    +0.061 A 
ATOM     34  ND1 HIS A   3       6.791  -5.101  28.198  0.00  0.00    -0.241 NA
ATOM     35  CE1 HIS A   3       5.879  -6.045  28.139  0.00  0.00    +0.196 A 
ATOM     36  NE2 HIS A   3       5.667  -6.459  26.854  0.00  0.00    -0.351 N 
ATOM     37  HE2 HIS A   3       5.002  -7.161  26.556  0.00  0.00    +0.166 HD
ATOM     38  CD2 HIS A   3       6.504  -5.742  26.048  0.00  0.00    +0.107 A 
ENDBRANCH  32  33
ENDBRANCH  21  32
ENDBRANCH   3  21
TORSDOF 15
ENDMDL
MODEL 13
REMARK VINA RESULT:      -6.3      2.314      5.045
REMARK  Name = VLHS-mmff94.pdb
REMARK  19 active torsions:
REMARK  status: ('A' for Active; 'I' for Inactive)
REMARK    1  A    between atoms: _1  and  _2
REMARK    2  A    between atoms: _2  and  _3
REMARK    3  A    between atoms: _2  and  _5
REMARK    4  A    between atoms: _5  and  _6
REMARK    5  A    between atoms: _5  and  _7
REMARK    6  A    between atoms: _17  and  _18
REMARK    7  A    between atoms: _18  and  _19
REMARK    8  A    between atoms: _18  and  _21
REMARK    9  A    between atoms: _21  and  _22
REMARK   10  A    between atoms: _22  and  _23
REMARK   11  A    between atoms: _22  and  _24
REMARK   12  A    between atoms: _36  and  _37
REMARK   13  A    between atoms: _37  and  _38
REMARK   14  A    between atoms: _37  and  _40
REMARK   15  A    between atoms: _40  and  _41
REMARK   16  A    between atoms: _53  and  _54
REMARK   17  A    between atoms: _54  and  _55
REMARK   18  A    between atoms: _54  and  _57
REMARK   19  A    between atoms: _57  and  _58
REMARK                            x       y       z     vdW  Elec       q    Type
REMARK                         _______ _______ _______ _____ _____    ______ ____
ROOT
ATOM      1  C   LEU A   2       8.159  -1.588  22.730  0.00  0.00    +0.234 C 
ATOM      2  O   LEU A   2       9.125  -1.985  22.074  0.00  0.00    -0.274 OA
ATOM      3  N   HIS A   3       7.786  -2.169  23.916  0.00  0.00    -0.302 N 
ATOM      4  H   HIS A   3       6.966  -1.856  24.429  0.00  0.00    +0.150 HD
ENDROOT
BRANCH   1   5
ATOM      5  CA  LEU A   2       7.285  -0.409  22.262  0.00  0.00    +0.159 C 
BRANCH   5   7
ATOM      6  C   VAL A   1       8.334   1.491  23.466  0.00  0.00    +0.231 C 
ATOM      7  N   LEU A   2       8.145   0.771  22.312  0.00  0.00    -0.303 N 
ATOM      8  H   LEU A   2       8.880   0.794  21.609  0.00  0.00    +0.149 HD
ATOM      9  O   VAL A   1       7.658   1.334  24.480  0.00  0.00    -0.274 OA
BRANCH   6  10
ATOM     10  CA  VAL A   1       9.449   2.562  23.369  0.00  0.00    +0.140 C 
BRANCH  10  11
ATOM     11  N   VAL A   1       9.957   2.558  21.980  0.00  0.00    -0.320 NA
ATOM     12  H1  VAL A   1      10.691   1.851  21.906  0.00  0.00    +0.119 HD
ATOM     13  H2  VAL A   1       9.203   2.206  21.382  0.00  0.00    +0.119 HD
ENDBRANCH  10  11
BRANCH  10  14
ATOM     14  CB  VAL A   1       8.900   3.952  23.767  0.00  0.00    +0.009 C 
ATOM     15  CG2 VAL A   1      10.023   4.994  23.848  0.00  0.00    +0.009 C 
ATOM     16  CG1 VAL A   1       7.834   4.446  22.782  0.00  0.00    +0.009 C 
ENDBRANCH  10  14
ENDBRANCH   6  10
ENDBRANCH   5   7
BRANCH   5  17
ATOM     17  CB  LEU A   2       6.767  -0.660  20.839  0.00  0.00    +0.034 C 
BRANCH  17  18
ATOM     18  CG  LEU A   2       6.939   0.534  19.879  0.00  0.00    -0.015 C 
ATOM     19  CD2 LEU A   2       5.614   1.248  19.605  0.00  0.00    +0.007 C 
ATOM     20  CD1 LEU A   2       7.544   0.052  18.558  0.00  0.00    +0.007 C 
ENDBRANCH  17  18
ENDBRANCH   5  17
ENDBRANCH   1   5
BRANCH   3  21
ATOM     21  CA  HIS A   3       8.507  -3.324  24.456  0.00  0.00    +0.165 C 
BRANCH  21  22
ATOM     22  C   HIS A   3       7.794  -4.597  23.970  0.00  0.00    +0.234 C 
ATOM     23  O   HIS A   3       8.415  -5.532  23.459  0.00  0.00    -0.274 OA
ATOM     24  N   SER A   4       6.433  -4.635  24.161  0.00  0.00    -0.302 N 
ATOM     25  H   SER A   4       5.941  -3.755  24.367  0.00  0.00    +0.150 HD
BRANCH  24  26
ATOM     26  CA  SER A   4       5.633  -5.748  23.649  0.00  0.00    +0.161 C 
BRANCH  26  27
ATOM     27  C   SER A   4       4.612  -5.244  22.637  0.00  0.00    +0.247 C 
ATOM     28  O   SER A   4       3.423  -5.067  22.892  0.00  0.00    -0.299 OA
ENDBRANCH  26  27
BRANCH  26  29
ATOM     29  CB  SER A   4       4.896  -6.502  24.765  0.00  0.00    +0.185 C 
BRANCH  29  30
ATOM     30  OG  SER A   4       4.189  -7.626  24.243  0.00  0.00    -0.393 OA
ATOM     31  H   SER A   4       4.352  -8.365  24.860  0.00  0.00    +0.209 HD
ENDBRANCH  29  30
ENDBRANCH  26  29
ENDBRANCH  24  26
ENDBRANCH  21  22
BRANCH  21  32
ATOM     32  CB  HIS A   3       8.567  -3.291  25.988  0.00  0.00    +0.088 C 
BRANCH  32  33
ATOM     33  CG  HIS A   3       8.122  -1.971  26.504  0.00  0.00    +0.061 A 
ATOM     34  ND1 HIS A   3       6.786  -1.718  26.699  0.00  0.00    -0.241 NA
ATOM     35  CE1 HIS A   3       6.733  -0.499  27.187  0.00  0.00    +0.196 A 
ATOM     36  NE2 HIS A   3       7.982   0.038  27.334  0.00  0.00    -0.351 N 
ATOM     37  HE2 HIS A   3       8.197   0.953  27.707  0.00  0.00    +0.166 HD
ATOM     38  CD2 HIS A   3       8.882  -0.893  26.902  0.00  0.00    +0.107 A 
ENDBRANCH  32  33
ENDBRANCH  21  32
ENDBRANCH   3  21
TORSDOF 15
ENDMDL
MODEL 14
REMARK VINA RESULT:      -6.3      2.028      4.753
REMARK  Name = VLHS-mmff94.pdb
REMARK  19 active torsions:
REMARK  status: ('A' for Active; 'I' for Inactive)
REMARK    1  A    between atoms: _1  and  _2
REMARK    2  A    between atoms: _2  and  _3
REMARK    3  A    between atoms: _2  and  _5
REMARK    4  A    between atoms: _5  and  _6
REMARK    5  A    between atoms: _5  and  _7
REMARK    6  A    between atoms: _17  and  _18
REMARK    7  A    between atoms: _18  and  _19
REMARK    8  A    between atoms: _18  and  _21
REMARK    9  A    between atoms: _21  and  _22
REMARK   10  A    between atoms: _22  and  _23
REMARK   11  A    between atoms: _22  and  _24
REMARK   12  A    between atoms: _36  and  _37
REMARK   13  A    between atoms: _37  and  _38
REMARK   14  A    between atoms: _37  and  _40
REMARK   15  A    between atoms: _40  and  _41
REMARK   16  A    between atoms: _53  and  _54
REMARK   17  A    between atoms: _54  and  _55
REMARK   18  A    between atoms: _54  and  _57
REMARK   19  A    between atoms: _57  and  _58
REMARK                            x       y       z     vdW  Elec       q    Type
REMARK                         _______ _______ _______ _____ _____    ______ ____
ROOT
ATOM      1  C   LEU A   2       9.777  -0.814  22.784  0.00  0.00    +0.234 C 
ATOM      2  O   LEU A   2      10.458  -1.719  22.297  0.00  0.00    -0.274 OA
ATOM      3  N   HIS A   3       8.900  -1.028  23.818  0.00  0.00    -0.302 N 
ATOM      4  H   HIS A   3       8.318  -0.280  24.187  0.00  0.00    +0.150 HD
ENDROOT
BRANCH   1   5
ATOM      5  CA  LEU A   2       9.850   0.633  22.260  0.00  0.00    +0.159 C 
BRANCH   5   7
ATOM      6  C   VAL A   1       7.932   0.426  20.698  0.00  0.00    +0.231 C 
ATOM      7  N   LEU A   2       8.496   0.969  21.826  0.00  0.00    -0.303 N 
ATOM      8  H   LEU A   2       7.873   1.278  22.569  0.00  0.00    +0.149 HD
ATOM      9  O   VAL A   1       8.568  -0.215  19.865  0.00  0.00    -0.274 OA
BRANCH   6  10
ATOM     10  CA  VAL A   1       6.422   0.731  20.534  0.00  0.00    +0.140 C 
BRANCH  10  11
ATOM     11  N   VAL A   1       6.131   1.975  21.278  0.00  0.00    -0.320 NA
ATOM     12  H1  VAL A   1       6.941   2.202  21.859  0.00  0.00    +0.119 HD
ATOM     13  H2  VAL A   1       6.089   2.736  20.593  0.00  0.00    +0.119 HD
ENDBRANCH  10  11
BRANCH  10  14
ATOM     14  CB  VAL A   1       6.056   0.866  19.038  0.00  0.00    +0.009 C 
ATOM     15  CG2 VAL A   1       5.961  -0.507  18.360  0.00  0.00    +0.009 C 
ATOM     16  CG1 VAL A   1       4.729   1.609  18.842  0.00  0.00    +0.009 C 
ENDBRANCH  10  14
ENDBRANCH   6  10
ENDBRANCH   5   7
BRANCH   5  17
ATOM     17  CB  LEU A   2      10.329   1.579  23.369  0.00  0.00    +0.034 C 
BRANCH  17  18
ATOM     18  CG  LEU A   2       9.372   2.751  23.665  0.00  0.00    -0.015 C 
ATOM     19  CD2 LEU A   2      10.105   4.092  23.729  0.00  0.00    +0.007 C 
ATOM     20  CD1 LEU A   2       8.644   2.501  24.988  0.00  0.00    +0.007 C 
ENDBRANCH  17  18
ENDBRANCH   5  17
ENDBRANCH   1   5
BRANCH   3  21
ATOM     21  CA  HIS A   3       8.704  -2.364  24.384  0.00  0.00    +0.165 C 
BRANCH  21  22
ATOM     22  C   HIS A   3       7.455  -2.977  23.729  0.00  0.00    +0.234 C 
ATOM     23  O   HIS A   3       6.380  -2.375  23.694  0.00  0.00    -0.274 OA
ATOM     24  N   SER A   4       7.619  -4.221  23.166  0.00  0.00    -0.302 N 
ATOM     25  H   SER A   4       8.451  -4.771  23.425  0.00  0.00    +0.150 HD
BRANCH  24  26
ATOM     26  CA  SER A   4       6.482  -4.949  22.604  0.00  0.00    +0.161 C 
BRANCH  26  27
ATOM     27  C   SER A   4       5.849  -5.842  23.662  0.00  0.00    +0.247 C 
ATOM     28  O   SER A   4       4.695  -6.261  23.605  0.00  0.00    -0.299 OA
ENDBRANCH  26  27
BRANCH  26  29
ATOM     29  CB  SER A   4       6.877  -5.811  21.396  0.00  0.00    +0.185 C 
BRANCH  29  30
ATOM     30  OG  SER A   4       5.946  -5.652  20.327  0.00  0.00    -0.393 OA
ATOM     31  H   SER A   4       6.473  -5.462  19.529  0.00  0.00    +0.209 HD
ENDBRANCH  29  30
ENDBRANCH  26  29
ENDBRANCH  24  26
ENDBRANCH  21  22
BRANCH  21  32
ATOM     32  CB  HIS A   3       8.547  -2.318  25.909  0.00  0.00    +0.088 C 
BRANCH  32  33
ATOM     33  CG  HIS A   3       8.209  -3.661  26.446  0.00  0.00    +0.061 A 
ATOM     34  ND1 HIS A   3       6.967  -3.901  26.981  0.00  0.00    -0.241 NA
ATOM     35  CE1 HIS A   3       6.979  -5.169  27.325  0.00  0.00    +0.196 A 
ATOM     36  NE2 HIS A   3       8.171  -5.763  27.015  0.00  0.00    -0.351 N 
ATOM     37  HE2 HIS A   3       8.410  -6.734  27.167  0.00  0.00    +0.166 HD
ATOM     38  CD2 HIS A   3       8.969  -4.809  26.451  0.00  0.00    +0.107 A 
ENDBRANCH  32  33
ENDBRANCH  21  32
ENDBRANCH   3  21
TORSDOF 15
ENDMDL
MODEL 15
REMARK VINA RESULT:      -6.2      2.328      7.436
REMARK  Name = VLHS-mmff94.pdb
REMARK  19 active torsions:
REMARK  status: ('A' for Active; 'I' for Inactive)
REMARK    1  A    between atoms: _1  and  _2
REMARK    2  A    between atoms: _2  and  _3
REMARK    3  A    between atoms: _2  and  _5
REMARK    4  A    between atoms: _5  and  _6
REMARK    5  A    between atoms: _5  and  _7
REMARK    6  A    between atoms: _17  and  _18
REMARK    7  A    between atoms: _18  and  _19
REMARK    8  A    between atoms: _18  and  _21
REMARK    9  A    between atoms: _21  and  _22
REMARK   10  A    between atoms: _22  and  _23
REMARK   11  A    between atoms: _22  and  _24
REMARK   12  A    between atoms: _36  and  _37
REMARK   13  A    between atoms: _37  and  _38
REMARK   14  A    between atoms: _37  and  _40
REMARK   15  A    between atoms: _40  and  _41
REMARK   16  A    between atoms: _53  and  _54
REMARK   17  A    between atoms: _54  and  _55
REMARK   18  A    between atoms: _54  and  _57
REMARK   19  A    between atoms: _57  and  _58
REMARK                            x       y       z     vdW  Elec       q    Type
REMARK                         _______ _______ _______ _____ _____    ______ ____
ROOT
ATOM      1  C   LEU A   2       8.469  -1.767  22.587  0.00  0.00    +0.234 C 
ATOM      2  O   LEU A   2       9.665  -2.016  22.421  0.00  0.00    -0.274 OA
ATOM      3  N   HIS A   3       8.006  -1.067  23.673  0.00  0.00    -0.302 N 
ATOM      4  H   HIS A   3       7.013  -0.900  23.816  0.00  0.00    +0.150 HD
ENDROOT
BRANCH   1   5
ATOM      5  CA  LEU A   2       7.394  -2.233  21.587  0.00  0.00    +0.159 C 
BRANCH   5   7
ATOM      6  C   VAL A   1       5.927  -4.227  21.765  0.00  0.00    +0.231 C 
ATOM      7  N   LEU A   2       6.510  -3.123  22.336  0.00  0.00    -0.303 N 
ATOM      8  H   LEU A   2       6.664  -3.131  23.342  0.00  0.00    +0.149 HD
ATOM      9  O   VAL A   1       5.932  -4.445  20.556  0.00  0.00    -0.274 OA
BRANCH   6  10
ATOM     10  CA  VAL A   1       5.212  -5.160  22.774  0.00  0.00    +0.140 C 
BRANCH  10  11
ATOM     11  N   VAL A   1       6.197  -5.541  23.809  0.00  0.00    -0.320 NA
ATOM     12  H1  VAL A   1       5.710  -6.051  24.548  0.00  0.00    +0.119 HD
ATOM     13  H2  VAL A   1       6.824  -6.236  23.391  0.00  0.00    +0.119 HD
ENDBRANCH  10  11
BRANCH  10  14
ATOM     14  CB  VAL A   1       3.985  -4.450  23.393  0.00  0.00    +0.009 C 
ATOM     15  CG2 VAL A   1       2.733  -5.334  23.320  0.00  0.00    +0.009 C 
ATOM     16  CG1 VAL A   1       4.232  -4.058  24.854  0.00  0.00    +0.009 C 
ENDBRANCH  10  14
ENDBRANCH   6  10
ENDBRANCH   5   7
BRANCH   5  17
ATOM     17  CB  LEU A   2       6.626  -1.027  21.028  0.00  0.00    +0.034 C 
BRANCH  17  18
ATOM     18  CG  LEU A   2       7.522   0.109  20.497  0.00  0.00    -0.015 C 
ATOM     19  CD2 LEU A   2       7.170   1.460  21.122  0.00  0.00    +0.007 C 
ATOM     20  CD1 LEU A   2       7.393   0.199  18.974  0.00  0.00    +0.007 C 
ENDBRANCH  17  18
ENDBRANCH   5  17
ENDBRANCH   1   5
BRANCH   3  21
ATOM     21  CA  HIS A   3       8.917  -0.600  24.721  0.00  0.00    +0.165 C 
BRANCH  21  22
ATOM     22  C   HIS A   3       8.878  -1.620  25.871  0.00  0.00    +0.234 C 
ATOM     23  O   HIS A   3       8.985  -1.272  27.049  0.00  0.00    -0.274 OA
ATOM     24  N   SER A   4       8.693  -2.933  25.506  0.00  0.00    -0.302 N 
ATOM     25  H   SER A   4       8.846  -3.195  24.522  0.00  0.00    +0.150 HD
BRANCH  24  26
ATOM     26  CA  SER A   4       8.740  -4.004  26.501  0.00  0.00    +0.161 C 
BRANCH  26  27
ATOM     27  C   SER A   4       9.452  -5.224  25.932  0.00  0.00    +0.247 C 
ATOM     28  O   SER A   4       9.364  -5.585  24.761  0.00  0.00    -0.299 OA
ENDBRANCH  26  27
BRANCH  26  29
ATOM     29  CB  SER A   4       7.342  -4.422  26.978  0.00  0.00    +0.185 C 
BRANCH  29  30
ATOM     30  OG  SER A   4       7.101  -5.803  26.711  0.00  0.00    -0.393 OA
ATOM     31  H   SER A   4       6.541  -5.835  25.912  0.00  0.00    +0.209 HD
ENDBRANCH  29  30
ENDBRANCH  26  29
ENDBRANCH  24  26
ENDBRANCH  21  22
BRANCH  21  32
ATOM     32  CB  HIS A   3       8.535   0.797  25.224  0.00  0.00    +0.088 C 
BRANCH  32  33
ATOM     33  CG  HIS A   3       9.145   1.849  24.371  0.00  0.00    +0.061 A 
ATOM     34  ND1 HIS A   3      10.050   1.511  23.394  0.00  0.00    -0.241 NA
ATOM     35  CE1 HIS A   3      10.365   2.645  22.809  0.00  0.00    +0.196 A 
ATOM     36  NE2 HIS A   3       9.685   3.698  23.355  0.00  0.00    -0.351 N 
ATOM     37  HE2 HIS A   3       9.747   4.664  23.061  0.00  0.00    +0.166 HD
ATOM     38  CD2 HIS A   3       8.899   3.204  24.357  0.00  0.00    +0.107 A 
ENDBRANCH  32  33
ENDBRANCH  21  32
ENDBRANCH   3  21
TORSDOF 15
ENDMDL
MODEL 16
REMARK VINA RESULT:      -6.2      2.360      5.081
REMARK  Name = VLHS-mmff94.pdb
REMARK  19 active torsions:
REMARK  status: ('A' for Active; 'I' for Inactive)
REMARK    1  A    between atoms: _1  and  _2
REMARK    2  A    between atoms: _2  and  _3
REMARK    3  A    between atoms: _2  and  _5
REMARK    4  A    between atoms: _5  and  _6
REMARK    5  A    between atoms: _5  and  _7
REMARK    6  A    between atoms: _17  and  _18
REMARK    7  A    between atoms: _18  and  _19
REMARK    8  A    between atoms: _18  and  _21
REMARK    9  A    between atoms: _21  and  _22
REMARK   10  A    between atoms: _22  and  _23
REMARK   11  A    between atoms: _22  and  _24
REMARK   12  A    between atoms: _36  and  _37
REMARK   13  A    between atoms: _37  and  _38
REMARK   14  A    between atoms: _37  and  _40
REMARK   15  A    between atoms: _40  and  _41
REMARK   16  A    between atoms: _53  and  _54
REMARK   17  A    between atoms: _54  and  _55
REMARK   18  A    between atoms: _54  and  _57
REMARK   19  A    between atoms: _57  and  _58
REMARK                            x       y       z     vdW  Elec       q    Type
REMARK                         _______ _______ _______ _____ _____    ______ ____
ROOT
ATOM      1  C   LEU A   2       8.710  -1.439  25.511  0.00  0.00    +0.234 C 
ATOM      2  O   LEU A   2       9.014  -1.465  26.705  0.00  0.00    -0.274 OA
ATOM      3  N   HIS A   3       7.647  -2.147  25.006  0.00  0.00    -0.302 N 
ATOM      4  H   HIS A   3       7.429  -2.145  24.013  0.00  0.00    +0.150 HD
ENDROOT
BRANCH   1   5
ATOM      5  CA  LEU A   2       9.507  -0.613  24.484  0.00  0.00    +0.159 C 
BRANCH   5   7
ATOM      6  C   VAL A   1       8.901  -1.165  22.141  0.00  0.00    +0.231 C 
ATOM      7  N   LEU A   2       8.645  -0.492  23.311  0.00  0.00    -0.303 N 
ATOM      8  H   LEU A   2       7.681  -0.237  23.514  0.00  0.00    +0.149 HD
ATOM      9  O   VAL A   1       9.957  -1.750  21.915  0.00  0.00    -0.274 OA
BRANCH   6  10
ATOM     10  CA  VAL A   1       7.756  -1.083  21.100  0.00  0.00    +0.140 C 
BRANCH  10  11
ATOM     11  N   VAL A   1       6.482  -1.310  21.814  0.00  0.00    -0.320 NA
ATOM     12  H1  VAL A   1       6.481  -2.264  22.182  0.00  0.00    +0.119 HD
ATOM     13  H2  VAL A   1       6.491  -0.716  22.649  0.00  0.00    +0.119 HD
ENDBRANCH  10  11
BRANCH  10  14
ATOM     14  CB  VAL A   1       7.770   0.288  20.386  0.00  0.00    +0.009 C 
ATOM     15  CG2 VAL A   1       7.388   0.151  18.906  0.00  0.00    +0.009 C 
ATOM     16  CG1 VAL A   1       6.818   1.287  21.054  0.00  0.00    +0.009 C 
ENDBRANCH  10  14
ENDBRANCH   6  10
ENDBRANCH   5   7
BRANCH   5  17
ATOM     17  CB  LEU A   2       9.856   0.766  25.062  0.00  0.00    +0.034 C 
BRANCH  17  18
ATOM     18  CG  LEU A   2       9.469   1.952  24.156  0.00  0.00    -0.015 C 
ATOM     19  CD2 LEU A   2      10.696   2.643  23.557  0.00  0.00    +0.007 C 
ATOM     20  CD1 LEU A   2       8.649   2.967  24.957  0.00  0.00    +0.007 C 
ENDBRANCH  17  18
ENDBRANCH   5  17
ENDBRANCH   1   5
BRANCH   3  21
ATOM     21  CA  HIS A   3       6.829  -3.005  25.866  0.00  0.00    +0.165 C 
BRANCH  21  22
ATOM     22  C   HIS A   3       6.571  -4.321  25.114  0.00  0.00    +0.234 C 
ATOM     23  O   HIS A   3       6.656  -5.415  25.675  0.00  0.00    -0.274 OA
ATOM     24  N   SER A   4       6.217  -4.199  23.790  0.00  0.00    -0.302 N 
ATOM     25  H   SER A   4       6.388  -3.301  23.317  0.00  0.00    +0.150 HD
BRANCH  24  26
ATOM     26  CA  SER A   4       6.045  -5.381  22.946  0.00  0.00    +0.161 C 
BRANCH  26  27
ATOM     27  C   SER A   4       6.288  -5.027  21.485  0.00  0.00    +0.247 C 
ATOM     28  O   SER A   4       5.695  -4.130  20.889  0.00  0.00    -0.299 OA
ENDBRANCH  26  27
BRANCH  26  29
ATOM     29  CB  SER A   4       4.646  -6.000  23.082  0.00  0.00    +0.185 C 
BRANCH  29  30
ATOM     30  OG  SER A   4       4.692  -7.205  23.844  0.00  0.00    -0.393 OA
ATOM     31  H   SER A   4       5.603  -7.281  24.184  0.00  0.00    +0.209 HD
ENDBRANCH  29  30
ENDBRANCH  26  29
ENDBRANCH  24  26
ENDBRANCH  21  22
BRANCH  21  32
ATOM     32  CB  HIS A   3       5.505  -2.330  26.246  0.00  0.00    +0.088 C 
BRANCH  32  33
ATOM     33  CG  HIS A   3       5.574  -0.865  26.014  0.00  0.00    +0.061 A 
ATOM     34  ND1 HIS A   3       5.478  -0.359  24.740  0.00  0.00    -0.241 NA
ATOM     35  CE1 HIS A   3       5.538   0.946  24.882  0.00  0.00    +0.196 A 
ATOM     36  NE2 HIS A   3       5.649   1.304  26.197  0.00  0.00    -0.351 N 
ATOM     37  HE2 HIS A   3       5.693   2.249  26.555  0.00  0.00    +0.166 HD
ATOM     38  CD2 HIS A   3       5.673   0.155  26.934  0.00  0.00    +0.107 A 
ENDBRANCH  32  33
ENDBRANCH  21  32
ENDBRANCH   3  21
TORSDOF 15
ENDMDL
MODEL 17
REMARK VINA RESULT:      -6.2      2.377      6.667
REMARK  Name = VLHS-mmff94.pdb
REMARK  19 active torsions:
REMARK  status: ('A' for Active; 'I' for Inactive)
REMARK    1  A    between atoms: _1  and  _2
REMARK    2  A    between atoms: _2  and  _3
REMARK    3  A    between atoms: _2  and  _5
REMARK    4  A    between atoms: _5  and  _6
REMARK    5  A    between atoms: _5  and  _7
REMARK    6  A    between atoms: _17  and  _18
REMARK    7  A    between atoms: _18  and  _19
REMARK    8  A    between atoms: _18  and  _21
REMARK    9  A    between atoms: _21  and  _22
REMARK   10  A    between atoms: _22  and  _23
REMARK   11  A    between atoms: _22  and  _24
REMARK   12  A    between atoms: _36  and  _37
REMARK   13  A    between atoms: _37  and  _38
REMARK   14  A    between atoms: _37  and  _40
REMARK   15  A    between atoms: _40  and  _41
REMARK   16  A    between atoms: _53  and  _54
REMARK   17  A    between atoms: _54  and  _55
REMARK   18  A    between atoms: _54  and  _57
REMARK   19  A    between atoms: _57  and  _58
REMARK                            x       y       z     vdW  Elec       q    Type
REMARK                         _______ _______ _______ _____ _____    ______ ____
ROOT
ATOM      1  C   LEU A   2       8.884  -1.303  24.250  0.00  0.00    +0.234 C 
ATOM      2  O   LEU A   2       9.879  -2.007  24.067  0.00  0.00    -0.274 OA
ATOM      3  N   HIS A   3       8.831   0.013  23.864  0.00  0.00    -0.302 N 
ATOM      4  H   HIS A   3       8.017   0.593  24.053  0.00  0.00    +0.150 HD
ENDROOT
BRANCH   1   5
ATOM      5  CA  LEU A   2       7.618  -1.846  24.941  0.00  0.00    +0.159 C 
BRANCH   5   7
ATOM      6  C   VAL A   1       5.666  -2.832  23.768  0.00  0.00    +0.231 C 
ATOM      7  N   LEU A   2       7.019  -2.785  23.996  0.00  0.00    -0.303 N 
ATOM      8  H   LEU A   2       7.640  -3.098  23.253  0.00  0.00    +0.149 HD
ATOM      9  O   VAL A   1       4.842  -2.246  24.465  0.00  0.00    -0.274 OA
BRANCH   6  10
ATOM     10  CA  VAL A   1       5.255  -3.732  22.576  0.00  0.00    +0.140 C 
BRANCH  10  11
ATOM     11  N   VAL A   1       5.598  -3.013  21.330  0.00  0.00    -0.320 NA
ATOM     12  H1  VAL A   1       5.144  -2.098  21.349  0.00  0.00    +0.119 HD
ATOM     13  H2  VAL A   1       6.600  -2.800  21.368  0.00  0.00    +0.119 HD
ENDBRANCH  10  11
BRANCH  10  14
ATOM     14  CB  VAL A   1       5.973  -5.099  22.657  0.00  0.00    +0.009 C 
ATOM     15  CG2 VAL A   1       5.238  -6.061  23.600  0.00  0.00    +0.009 C 
ATOM     16  CG1 VAL A   1       6.100  -5.757  21.278  0.00  0.00    +0.009 C 
ENDBRANCH  10  14
ENDBRANCH   6  10
ENDBRANCH   5   7
BRANCH   5  17
ATOM     17  CB  LEU A   2       7.985  -2.541  26.260  0.00  0.00    +0.034 C 
BRANCH  17  18
ATOM     18  CG  LEU A   2       7.879  -4.078  26.220  0.00  0.00    -0.015 C 
ATOM     19  CD2 LEU A   2       6.900  -4.615  27.266  0.00  0.00    +0.007 C 
ATOM     20  CD1 LEU A   2       9.261  -4.696  26.446  0.00  0.00    +0.007 C 
ENDBRANCH  17  18
ENDBRANCH   5  17
ENDBRANCH   1   5
BRANCH   3  21
ATOM     21  CA  HIS A   3       9.980   0.666  23.232  0.00  0.00    +0.165 C 
BRANCH  21  22
ATOM     22  C   HIS A   3      10.043   2.114  23.746  0.00  0.00    +0.234 C 
ATOM     23  O   HIS A   3      11.105   2.739  23.793  0.00  0.00    -0.274 OA
ATOM     24  N   SER A   4       8.844   2.672  24.125  0.00  0.00    -0.302 N 
ATOM     25  H   SER A   4       8.043   2.048  24.289  0.00  0.00    +0.150 HD
BRANCH  24  26
ATOM     26  CA  SER A   4       8.791   4.005  24.724  0.00  0.00    +0.161 C 
BRANCH  26  27
ATOM     27  C   SER A   4       7.781   4.033  25.863  0.00  0.00    +0.247 C 
ATOM     28  O   SER A   4       7.852   4.796  26.825  0.00  0.00    -0.299 OA
ENDBRANCH  26  27
BRANCH  26  29
ATOM     29  CB  SER A   4       8.422   5.092  23.705  0.00  0.00    +0.185 C 
BRANCH  29  30
ATOM     30  OG  SER A   4       8.066   4.516  22.449  0.00  0.00    -0.393 OA
ATOM     31  H   SER A   4       7.139   4.770  22.281  0.00  0.00    +0.209 HD
ENDBRANCH  29  30
ENDBRANCH  26  29
ENDBRANCH  24  26
ENDBRANCH  21  22
BRANCH  21  32
ATOM     32  CB  HIS A   3       9.877   0.640  21.702  0.00  0.00    +0.088 C 
BRANCH  32  33
ATOM     33  CG  HIS A   3       8.457   0.607  21.269  0.00  0.00    +0.061 A 
ATOM     34  ND1 HIS A   3       7.655   1.709  21.440  0.00  0.00    -0.241 NA
ATOM     35  CE1 HIS A   3       6.492   1.371  20.930  0.00  0.00    +0.196 A 
ATOM     36  NE2 HIS A   3       6.516   0.104  20.419  0.00  0.00    -0.351 N 
ATOM     37  HE2 HIS A   3       5.748  -0.368  19.960  0.00  0.00    +0.166 HD
ATOM     38  CD2 HIS A   3       7.768  -0.399  20.628  0.00  0.00    +0.107 A 
ENDBRANCH  32  33
ENDBRANCH  21  32
ENDBRANCH   3  21
TORSDOF 15
ENDMDL
MODEL 18
REMARK VINA RESULT:      -6.2      2.137      5.713
REMARK  Name = VLHS-mmff94.pdb
REMARK  19 active torsions:
REMARK  status: ('A' for Active; 'I' for Inactive)
REMARK    1  A    between atoms: _1  and  _2
REMARK    2  A    between atoms: _2  and  _3
REMARK    3  A    between atoms: _2  and  _5
REMARK    4  A    between atoms: _5  and  _6
REMARK    5  A    between atoms: _5  and  _7
REMARK    6  A    between atoms: _17  and  _18
REMARK    7  A    between atoms: _18  and  _19
REMARK    8  A    between atoms: _18  and  _21
REMARK    9  A    between atoms: _21  and  _22
REMARK   10  A    between atoms: _22  and  _23
REMARK   11  A    between atoms: _22  and  _24
REMARK   12  A    between atoms: _36  and  _37
REMARK   13  A    between atoms: _37  and  _38
REMARK   14  A    between atoms: _37  and  _40
REMARK   15  A    between atoms: _40  and  _41
REMARK   16  A    between atoms: _53  and  _54
REMARK   17  A    between atoms: _54  and  _55
REMARK   18  A    between atoms: _54  and  _57
REMARK   19  A    between atoms: _57  and  _58
REMARK                            x       y       z     vdW  Elec       q    Type
REMARK                         _______ _______ _______ _____ _____    ______ ____
ROOT
ATOM      1  C   LEU A   2       8.782   0.070  22.048  0.00  0.00    +0.234 C 
ATOM      2  O   LEU A   2       9.946   0.025  21.645  0.00  0.00    -0.274 OA
ATOM      3  N   HIS A   3       8.426  -0.311  23.318  0.00  0.00    -0.302 N 
ATOM      4  H   HIS A   3       7.457  -0.303  23.626  0.00  0.00    +0.150 HD
ENDROOT
BRANCH   1   5
ATOM      5  CA  LEU A   2       7.626   0.552  21.150  0.00  0.00    +0.159 C 
BRANCH   5   7
ATOM      6  C   VAL A   1       6.852   2.627  22.272  0.00  0.00    +0.231 C 
ATOM      7  N   LEU A   2       7.589   2.006  21.293  0.00  0.00    -0.303 N 
ATOM      8  H   LEU A   2       8.405   2.493  20.929  0.00  0.00    +0.149 HD
ATOM      9  O   VAL A   1       6.022   2.044  22.966  0.00  0.00    -0.274 OA
BRANCH   6  10
ATOM     10  CA  VAL A   1       7.120   4.147  22.399  0.00  0.00    +0.140 C 
BRANCH  10  11
ATOM     11  N   VAL A   1       5.827   4.846  22.236  0.00  0.00    -0.320 NA
ATOM     12  H1  VAL A   1       6.002   5.853  22.220  0.00  0.00    +0.119 HD
ATOM     13  H2  VAL A   1       5.481   4.633  21.296  0.00  0.00    +0.119 HD
ENDBRANCH  10  11
BRANCH  10  14
ATOM     14  CB  VAL A   1       7.772   4.470  23.763  0.00  0.00    +0.009 C 
ATOM     15  CG2 VAL A   1       8.914   5.483  23.609  0.00  0.00    +0.009 C 
ATOM     16  CG1 VAL A   1       6.751   5.022  24.765  0.00  0.00    +0.009 C 
ENDBRANCH  10  14
ENDBRANCH   6  10
ENDBRANCH   5   7
BRANCH   5  17
ATOM     17  CB  LEU A   2       7.877   0.144  19.692  0.00  0.00    +0.034 C 
BRANCH  17  18
ATOM     18  CG  LEU A   2       6.612  -0.292  18.926  0.00  0.00    -0.015 C 
ATOM     19  CD2 LEU A   2       5.734   0.900  18.540  0.00  0.00    +0.007 C 
ATOM     20  CD1 LEU A   2       5.802  -1.270  19.781  0.00  0.00    +0.007 C 
ENDBRANCH  17  18
ENDBRANCH   5  17
ENDBRANCH   1   5
BRANCH   3  21
ATOM     21  CA  HIS A   3       9.420  -0.827  24.262  0.00  0.00    +0.165 C 
BRANCH  21  22
ATOM     22  C   HIS A   3       9.469  -2.356  24.109  0.00  0.00    +0.234 C 
ATOM     23  O   HIS A   3      10.433  -2.925  23.590  0.00  0.00    -0.274 OA
ATOM     24  N   SER A   4       8.389  -3.047  24.606  0.00  0.00    -0.302 N 
ATOM     25  H   SER A   4       7.524  -2.526  24.808  0.00  0.00    +0.150 HD
BRANCH  24  26
ATOM     26  CA  SER A   4       8.275  -4.494  24.428  0.00  0.00    +0.161 C 
BRANCH  26  27
ATOM     27  C   SER A   4       6.811  -4.900  24.316  0.00  0.00    +0.247 C 
ATOM     28  O   SER A   4       6.338  -5.498  23.352  0.00  0.00    -0.299 OA
ENDBRANCH  26  27
BRANCH  26  29
ATOM     29  CB  SER A   4       8.921  -5.279  25.580  0.00  0.00    +0.185 C 
BRANCH  29  30
ATOM     30  OG  SER A   4      10.293  -5.555  25.304  0.00  0.00    -0.393 OA
ATOM     31  H   SER A   4      10.322  -5.933  24.405  0.00  0.00    +0.209 HD
ENDBRANCH  29  30
ENDBRANCH  26  29
ENDBRANCH  24  26
ENDBRANCH  21  22
BRANCH  21  32
ATOM     32  CB  HIS A   3       9.085  -0.439  25.707  0.00  0.00    +0.088 C 
BRANCH  32  33
ATOM     33  CG  HIS A   3       7.737   0.179  25.789  0.00  0.00    +0.061 A 
ATOM     34  ND1 HIS A   3       6.611  -0.591  25.628  0.00  0.00    -0.241 NA
ATOM     35  CE1 HIS A   3       5.602   0.235  25.790  0.00  0.00    +0.196 A 
ATOM     36  NE2 HIS A   3       6.031   1.503  26.068  0.00  0.00    -0.351 N 
ATOM     37  HE2 HIS A   3       5.441   2.305  26.250  0.00  0.00    +0.166 HD
ATOM     38  CD2 HIS A   3       7.396   1.483  26.071  0.00  0.00    +0.107 A 
ENDBRANCH  32  33
ENDBRANCH  21  32
ENDBRANCH   3  21
TORSDOF 15
ENDMDL
MODEL 19
REMARK VINA RESULT:      -6.2      2.279      6.049
REMARK  Name = VLHS-mmff94.pdb
REMARK  19 active torsions:
REMARK  status: ('A' for Active; 'I' for Inactive)
REMARK    1  A    between atoms: _1  and  _2
REMARK    2  A    between atoms: _2  and  _3
REMARK    3  A    between atoms: _2  and  _5
REMARK    4  A    between atoms: _5  and  _6
REMARK    5  A    between atoms: _5  and  _7
REMARK    6  A    between atoms: _17  and  _18
REMARK    7  A    between atoms: _18  and  _19
REMARK    8  A    between atoms: _18  and  _21
REMARK    9  A    between atoms: _21  and  _22
REMARK   10  A    between atoms: _22  and  _23
REMARK   11  A    between atoms: _22  and  _24
REMARK   12  A    between atoms: _36  and  _37
REMARK   13  A    between atoms: _37  and  _38
REMARK   14  A    between atoms: _37  and  _40
REMARK   15  A    between atoms: _40  and  _41
REMARK   16  A    between atoms: _53  and  _54
REMARK   17  A    between atoms: _54  and  _55
REMARK   18  A    between atoms: _54  and  _57
REMARK   19  A    between atoms: _57  and  _58
REMARK                            x       y       z     vdW  Elec       q    Type
REMARK                         _______ _______ _______ _____ _____    ______ ____
ROOT
ATOM      1  C   LEU A   2       8.459  -0.861  21.840  0.00  0.00    +0.234 C 
ATOM      2  O   LEU A   2       9.599  -0.713  21.395  0.00  0.00    -0.274 OA
ATOM      3  N   HIS A   3       8.216  -1.412  23.074  0.00  0.00    -0.302 N 
ATOM      4  H   HIS A   3       7.270  -1.562  23.414  0.00  0.00    +0.150 HD
ENDROOT
BRANCH   1   5
ATOM      5  CA  LEU A   2       7.211  -0.446  21.039  0.00  0.00    +0.159 C 
BRANCH   5   7
ATOM      6  C   VAL A   1       6.777   1.763  22.085  0.00  0.00    +0.231 C 
ATOM      7  N   LEU A   2       6.449   0.440  21.916  0.00  0.00    -0.303 N 
ATOM      8  H   LEU A   2       5.481   0.166  22.064  0.00  0.00    +0.149 HD
ATOM      9  O   VAL A   1       7.829   2.255  21.686  0.00  0.00    -0.274 OA
BRANCH   6  10
ATOM     10  CA  VAL A   1       5.723   2.581  22.871  0.00  0.00    +0.140 C 
BRANCH  10  11
ATOM     11  N   VAL A   1       5.150   1.697  23.909  0.00  0.00    -0.320 NA
ATOM     12  H1  VAL A   1       4.711   0.898  23.448  0.00  0.00    +0.119 HD
ATOM     13  H2  VAL A   1       5.934   1.292  24.430  0.00  0.00    +0.119 HD
ENDBRANCH  10  11
BRANCH  10  14
ATOM     14  CB  VAL A   1       6.369   3.841  23.493  0.00  0.00    +0.009 C 
ATOM     15  CG2 VAL A   1       5.931   5.114  22.757  0.00  0.00    +0.009 C 
ATOM     16  CG1 VAL A   1       6.022   3.983  24.980  0.00  0.00    +0.009 C 
ENDBRANCH  10  14
ENDBRANCH   6  10
ENDBRANCH   5   7
BRANCH   5  17
ATOM     17  CB  LEU A   2       7.621   0.272  19.745  0.00  0.00    +0.034 C 
BRANCH  17  18
ATOM     18  CG  LEU A   2       6.622   0.110  18.583  0.00  0.00    -0.015 C 
ATOM     19  CD2 LEU A   2       5.681   1.311  18.462  0.00  0.00    +0.007 C 
ATOM     20  CD1 LEU A   2       5.800  -1.166  18.782  0.00  0.00    +0.007 C 
ENDBRANCH  17  18
ENDBRANCH   5  17
ENDBRANCH   1   5
BRANCH   3  21
ATOM     21  CA  HIS A   3       9.311  -1.887  23.923  0.00  0.00    +0.165 C 
BRANCH  21  22
ATOM     22  C   HIS A   3       9.010  -3.343  24.314  0.00  0.00    +0.234 C 
ATOM     23  O   HIS A   3       9.911  -4.149  24.555  0.00  0.00    -0.274 OA
ATOM     24  N   SER A   4       7.679  -3.681  24.400  0.00  0.00    -0.302 N 
ATOM     25  H   SER A   4       6.985  -3.056  23.967  0.00  0.00    +0.150 HD
BRANCH  24  26
ATOM     26  CA  SER A   4       7.269  -5.060  24.664  0.00  0.00    +0.161 C 
BRANCH  26  27
ATOM     27  C   SER A   4       5.948  -5.362  23.969  0.00  0.00    +0.247 C 
ATOM     28  O   SER A   4       5.231  -6.321  24.246  0.00  0.00    -0.299 OA
ENDBRANCH  26  27
BRANCH  26  29
ATOM     29  CB  SER A   4       7.119  -5.350  26.165  0.00  0.00    +0.185 C 
BRANCH  29  30
ATOM     30  OG  SER A   4       8.348  -5.814  26.722  0.00  0.00    -0.393 OA
ATOM     31  H   SER A   4       8.384  -5.470  27.634  0.00  0.00    +0.209 HD
ENDBRANCH  29  30
ENDBRANCH  26  29
ENDBRANCH  24  26
ENDBRANCH  21  22
BRANCH  21  32
ATOM     32  CB  HIS A   3       9.478  -1.015  25.173  0.00  0.00    +0.088 C 
BRANCH  32  33
ATOM     33  CG  HIS A   3       9.669   0.410  24.801  0.00  0.00    +0.061 A 
ATOM     34  ND1 HIS A   3      10.770   0.795  24.075  0.00  0.00    -0.241 NA
ATOM     35  CE1 HIS A   3      10.623   2.087  23.885  0.00  0.00    +0.196 A 
ATOM     36  NE2 HIS A   3       9.463   2.548  24.442  0.00  0.00    -0.351 N 
ATOM     37  HE2 HIS A   3       9.124   3.501  24.410  0.00  0.00    +0.166 HD
ATOM     38  CD2 HIS A   3       8.840   1.485  25.031  0.00  0.00    +0.107 A 
ENDBRANCH  32  33
ENDBRANCH  21  32
ENDBRANCH   3  21
TORSDOF 15
ENDMDL
MODEL 20
REMARK VINA RESULT:      -6.1      2.444      4.232
REMARK  Name = VLHS-mmff94.pdb
REMARK  19 active torsions:
REMARK  status: ('A' for Active; 'I' for Inactive)
REMARK    1  A    between atoms: _1  and  _2
REMARK    2  A    between atoms: _2  and  _3
REMARK    3  A    between atoms: _2  and  _5
REMARK    4  A    between atoms: _5  and  _6
REMARK    5  A    between atoms: _5  and  _7
REMARK    6  A    between atoms: _17  and  _18
REMARK    7  A    between atoms: _18  and  _19
REMARK    8  A    between atoms: _18  and  _21
REMARK    9  A    between atoms: _21  and  _22
REMARK   10  A    between atoms: _22  and  _23
REMARK   11  A    between atoms: _22  and  _24
REMARK   12  A    between atoms: _36  and  _37
REMARK   13  A    between atoms: _37  and  _38
REMARK   14  A    between atoms: _37  and  _40
REMARK   15  A    between atoms: _40  and  _41
REMARK   16  A    between atoms: _53  and  _54
REMARK   17  A    between atoms: _54  and  _55
REMARK   18  A    between atoms: _54  and  _57
REMARK   19  A    between atoms: _57  and  _58
REMARK                            x       y       z     vdW  Elec       q    Type
REMARK                         _______ _______ _______ _____ _____    ______ ____
ROOT
ATOM      1  C   LEU A   2       8.523  -1.529  22.878  0.00  0.00    +0.234 C 
ATOM      2  O   LEU A   2       9.578  -1.786  22.294  0.00  0.00    -0.274 OA
ATOM      3  N   HIS A   3       8.086  -2.249  23.962  0.00  0.00    -0.302 N 
ATOM      4  H   HIS A   3       7.197  -2.050  24.412  0.00  0.00    +0.150 HD
ENDROOT
BRANCH   1   5
ATOM      5  CA  LEU A   2       7.602  -0.379  22.428  0.00  0.00    +0.159 C 
BRANCH   5   7
ATOM      6  C   VAL A   1       8.908   1.361  23.622  0.00  0.00    +0.231 C 
ATOM      7  N   LEU A   2       8.427   0.826  22.452  0.00  0.00    -0.303 N 
ATOM      8  H   LEU A   2       8.947   1.007  21.596  0.00  0.00    +0.149 HD
ATOM      9  O   VAL A   1       8.530   1.003  24.735  0.00  0.00    -0.274 OA
BRANCH   6  10
ATOM     10  CA  VAL A   1       9.940   2.499  23.422  0.00  0.00    +0.140 C 
BRANCH  10  11
ATOM     11  N   VAL A   1      10.276   2.553  21.983  0.00  0.00    -0.320 NA
ATOM     12  H1  VAL A   1       9.489   2.176  21.452  0.00  0.00    +0.119 HD
ATOM     13  H2  VAL A   1      10.312   3.542  21.716  0.00  0.00    +0.119 HD
ENDBRANCH  10  11
BRANCH  10  14
ATOM     14  CB  VAL A   1       9.366   3.845  23.921  0.00  0.00    +0.009 C 
ATOM     15  CG2 VAL A   1      10.399   4.972  23.801  0.00  0.00    +0.009 C 
ATOM     16  CG1 VAL A   1       8.102   4.246  23.150  0.00  0.00    +0.009 C 
ENDBRANCH  10  14
ENDBRANCH   6  10
ENDBRANCH   5   7
BRANCH   5  17
ATOM     17  CB  LEU A   2       7.057  -0.651  21.019  0.00  0.00    +0.034 C 
BRANCH  17  18
ATOM     18  CG  LEU A   2       7.166   0.544  20.052  0.00  0.00    -0.015 C 
ATOM     19  CD2 LEU A   2       5.878   1.370  20.010  0.00  0.00    +0.007 C 
ATOM     20  CD1 LEU A   2       7.499   0.042  18.645  0.00  0.00    +0.007 C 
ENDBRANCH  17  18
ENDBRANCH   5  17
ENDBRANCH   1   5
BRANCH   3  21
ATOM     21  CA  HIS A   3       8.846  -3.394  24.469  0.00  0.00    +0.165 C 
BRANCH  21  22
ATOM     22  C   HIS A   3       8.199  -4.674  23.915  0.00  0.00    +0.234 C 
ATOM     23  O   HIS A   3       8.788  -5.758  23.934  0.00  0.00    -0.274 OA
ATOM     24  N   SER A   4       6.922  -4.540  23.423  0.00  0.00    -0.302 N 
ATOM     25  H   SER A   4       6.573  -3.594  23.216  0.00  0.00    +0.150 HD
BRANCH  24  26
ATOM     26  CA  SER A   4       6.242  -5.664  22.779  0.00  0.00    +0.161 C 
BRANCH  26  27
ATOM     27  C   SER A   4       6.466  -5.624  21.273  0.00  0.00    +0.247 C 
ATOM     28  O   SER A   4       5.882  -4.855  20.513  0.00  0.00    -0.299 OA
ENDBRANCH  26  27
BRANCH  26  29
ATOM     29  CB  SER A   4       4.732  -5.672  23.057  0.00  0.00    +0.185 C 
BRANCH  29  30
ATOM     30  OG  SER A   4       4.148  -4.407  22.751  0.00  0.00    -0.393 OA
ATOM     31  H   SER A   4       3.538  -4.201  23.485  0.00  0.00    +0.209 HD
ENDBRANCH  29  30
ENDBRANCH  26  29
ENDBRANCH  24  26
ENDBRANCH  21  22
BRANCH  21  32
ATOM     32  CB  HIS A   3       8.874  -3.422  26.002  0.00  0.00    +0.088 C 
BRANCH  32  33
ATOM     33  CG  HIS A   3       7.537  -3.772  26.548  0.00  0.00    +0.061 A 
ATOM     34  ND1 HIS A   3       6.469  -2.930  26.355  0.00  0.00    -0.241 NA
ATOM     35  CE1 HIS A   3       5.448  -3.536  26.919  0.00  0.00    +0.196 A 
ATOM     36  NE2 HIS A   3       5.809  -4.743  27.450  0.00  0.00    -0.351 N 
ATOM     37  HE2 HIS A   3       5.194  -5.396  27.917  0.00  0.00    +0.166 HD
ATOM     38  CD2 HIS A   3       7.145  -4.908  27.219  0.00  0.00    +0.107 A 
ENDBRANCH  32  33
ENDBRANCH  21  32
ENDBRANCH   3  21
TORSDOF 15
ENDMDL
